

        *** GPGPU-Sim Simulator Version 4.0.0  [build gpgpu-sim_git-commit-90ec3399763d7c8512cfe7dc193473086c38ca38_modified_11.0] ***


GPGPU-Sim PTX: simulation mode 0 (can change with PTX_SIM_MODE_FUNC environment variable:
               1=functional simulation only, 0=detailed performance simulator)
GPGPU-Sim PTX: overriding embedded ptx with ptx file (PTX_SIM_USE_PTX_FILE is set)
GPGPU-Sim: Configuration options:

-save_embedded_ptx                      0 # saves ptx files embedded in binary as <n>.ptx
-keep                                   0 # keep intermediate files created by GPGPU-Sim when interfacing with external programs
-gpgpu_ptx_save_converted_ptxplus                    0 # Saved converted ptxplus to a file
-gpgpu_occupancy_sm_number                   62 # The SM number to pass to ptxas when getting register usage for computing GPU occupancy. This parameter is required in the config.
-ptx_opcode_latency_int      4,13,4,5,145,32 # Opcode latencies for integers <ADD,MAX,MUL,MAD,DIV,SHFL>Default 1,1,19,25,145,32
-ptx_opcode_latency_fp          4,13,4,4,39 # Opcode latencies for single precision floating points <ADD,MAX,MUL,MAD,DIV>Default 1,1,1,1,30
-ptx_opcode_latency_dp         8,19,8,8,330 # Opcode latencies for double precision floating points <ADD,MAX,MUL,MAD,DIV>Default 8,8,8,8,335
-ptx_opcode_latency_sfu                   20 # Opcode latencies for SFU instructionsDefault 8
-ptx_opcode_latency_tesnor                   64 # Opcode latencies for Tensor instructionsDefault 64
-ptx_opcode_initiation_int          1,1,1,1,4,4 # Opcode initiation intervals for integers <ADD,MAX,MUL,MAD,DIV,SHFL>Default 1,1,4,4,32,4
-ptx_opcode_initiation_fp            1,2,1,1,4 # Opcode initiation intervals for single precision floating points <ADD,MAX,MUL,MAD,DIV>Default 1,1,1,1,5
-ptx_opcode_initiation_dp          8,8,8,8,130 # Opcode initiation intervals for double precision floating points <ADD,MAX,MUL,MAD,DIV>Default 8,8,8,8,130
-ptx_opcode_initiation_sfu                    4 # Opcode initiation intervals for sfu instructionsDefault 8
-ptx_opcode_initiation_tensor                   64 # Opcode initiation intervals for tensor instructionsDefault 64
-cdp_latency         7200,8000,100,12000,1600 # CDP API latency <cudaStreamCreateWithFlags, cudaGetParameterBufferV2_init_perWarp, cudaGetParameterBufferV2_perKernel, cudaLaunchDeviceV2_init_perWarp, cudaLaunchDevicV2_perKernel>Default 7200,8000,100,12000,1600
-network_mode                           1 # Interconnection network mode
-inter_config_file   config_pascal_islip.icnt # Interconnection network config file
-icnt_in_buffer_limit                   64 # in_buffer_limit
-icnt_out_buffer_limit                   64 # out_buffer_limit
-icnt_subnets                           2 # subnets
-icnt_arbiter_algo                      1 # arbiter_algo
-icnt_verbose                           0 # inct_verbose
-icnt_grant_cycles                      1 # grant_cycles
-gpgpu_ptx_use_cuobjdump                    1 # Use cuobjdump to extract ptx and sass from binaries
-gpgpu_experimental_lib_support                    0 # Try to extract code from cuda libraries [Broken because of unknown cudaGetExportTable]
-checkpoint_option                      0 #  checkpointing flag (0 = no checkpoint)
-checkpoint_kernel                      1 #  checkpointing during execution of which kernel (1- 1st kernel)
-checkpoint_CTA                         0 #  checkpointing after # of CTA (< less than total CTA)
-resume_option                          0 #  resume flag (0 = no resume)
-resume_kernel                          0 #  Resume from which kernel (1= 1st kernel)
-resume_CTA                             0 #  resume from which CTA 
-checkpoint_CTA_t                       0 #  resume from which CTA 
-checkpoint_insn_Y                      0 #  resume from which CTA 
-gpgpu_ptx_convert_to_ptxplus                    0 # Convert SASS (native ISA) to ptxplus and run ptxplus
-gpgpu_ptx_force_max_capability                   61 # Force maximum compute capability
-gpgpu_ptx_inst_debug_to_file                    0 # Dump executed instructions' debug information to file
-gpgpu_ptx_inst_debug_file       inst_debug.txt # Executed instructions' debug output file
-gpgpu_ptx_inst_debug_thread_uid                    1 # Thread UID for executed instructions' debug output
-gpgpu_simd_model                       1 # 1 = post-dominator
-gpgpu_shader_core_pipeline              2048:32 # shader core pipeline config, i.e., {<nthread>:<warpsize>}
-gpgpu_tex_cache:l1  N:16:128:24,L:R:m:N:L,T:128:4,128:2 # per-shader L1 texture cache  (READ-ONLY) config  {<nsets>:<bsize>:<assoc>,<rep>:<wr>:<alloc>:<wr_alloc>,<mshr>:<N>:<merge>,<mq>:<rf>}
-gpgpu_const_cache:l1 N:128:64:2,L:R:f:N:L,S:2:64,4 # per-shader L1 constant memory cache  (READ-ONLY) config  {<nsets>:<bsize>:<assoc>,<rep>:<wr>:<alloc>:<wr_alloc>,<mshr>:<N>:<merge>,<mq>} 
-gpgpu_cache:il1     N:8:128:4,L:R:f:N:L,S:2:48,4 # shader L1 instruction cache config  {<nsets>:<bsize>:<assoc>,<rep>:<wr>:<alloc>:<wr_alloc>,<mshr>:<N>:<merge>,<mq>} 
-gpgpu_cache:dl1     S:4:128:96,L:L:s:N:L,A:256:8,16:0,32 # per-shader L1 data cache config  {<nsets>:<bsize>:<assoc>,<rep>:<wr>:<alloc>:<wr_alloc>,<mshr>:<N>:<merge>,<mq> | none}
-gpgpu_l1_banks                         2 # The number of L1 cache banks
-gpgpu_l1_banks_byte_interleaving                   32 # l1 banks byte interleaving granularity
-gpgpu_l1_banks_hashing_function                    0 # l1 banks hashing function
-gpgpu_l1_latency                      82 # L1 Hit Latency
-gpgpu_smem_latency                    24 # smem Latency
-gpgpu_cache:dl1PrefL1 S:4:128:96,L:L:s:N:L,A:256:8,16:0,32 # per-shader L1 data cache config  {<nsets>:<bsize>:<assoc>,<rep>:<wr>:<alloc>:<wr_alloc>,<mshr>:<N>:<merge>,<mq> | none}
-gpgpu_cache:dl1PrefShared S:4:128:96,L:L:s:N:L,A:256:8,16:0,32 # per-shader L1 data cache config  {<nsets>:<bsize>:<assoc>,<rep>:<wr>:<alloc>:<wr_alloc>,<mshr>:<N>:<merge>,<mq> | none}
-gpgpu_gmem_skip_L1D                    1 # global memory access skip L1D cache (implements -Xptxas -dlcm=cg, default=no skip)
-gpgpu_perfect_mem                      0 # enable perfect memory mode (no cache miss)
-n_regfile_gating_group                    4 # group of lanes that should be read/written together)
-gpgpu_clock_gated_reg_file                    0 # enable clock gated reg file for power calculations
-gpgpu_clock_gated_lanes                    0 # enable clock gated lanes for power calculations
-gpgpu_shader_registers                65536 # Number of registers per shader core. Limits number of concurrent CTAs. (default 8192)
-gpgpu_registers_per_block                 8192 # Maximum number of registers per CTA. (default 8192)
-gpgpu_ignore_resources_limitation                    1 # gpgpu_ignore_resources_limitation (default 0)
-gpgpu_shader_cta                      32 # Maximum number of concurrent CTAs in shader (default 8)
-gpgpu_num_cta_barriers                   16 # Maximum number of named barriers per CTA (default 16)
-gpgpu_n_clusters                      28 # number of processing clusters
-gpgpu_n_cores_per_cluster                    1 # number of simd cores per cluster
-gpgpu_n_cluster_ejection_buffer_size                   32 # number of packets in ejection buffer
-gpgpu_n_ldst_response_buffer_size                    2 # number of response packets in ld/st unit ejection buffer
-gpgpu_shmem_per_block                49152 # Size of shared memory per thread block or CTA (default 48kB)
-gpgpu_shmem_size                   98304 # Size of shared memory per shader core (default 16kB)
-gpgpu_adaptive_cache_config                    0 # adaptive_cache_config
-gpgpu_shmem_sizeDefault                98304 # Size of shared memory per shader core (default 16kB)
-gpgpu_shmem_size_PrefL1                98304 # Size of shared memory per shader core (default 16kB)
-gpgpu_shmem_size_PrefShared                98304 # Size of shared memory per shader core (default 16kB)
-gpgpu_shmem_num_banks                   32 # Number of banks in the shared memory in each shader core (default 16)
-gpgpu_shmem_limited_broadcast                    0 # Limit shared memory to do one broadcast per cycle (default on)
-gpgpu_shmem_warp_parts                    1 # Number of portions a warp is divided into for shared memory bank conflict check 
-gpgpu_mem_unit_ports                    1 # The number of memory transactions allowed per core cycle
-gpgpu_shmem_warp_parts                    1 # Number of portions a warp is divided into for shared memory bank conflict check 
-gpgpu_warpdistro_shader                   -1 # Specify which shader core to collect the warp size distribution from
-gpgpu_warp_issue_shader                    0 # Specify which shader core to collect the warp issue distribution from
-gpgpu_local_mem_map                    1 # Mapping from local memory space address to simulated GPU physical address space (default = enabled)
-gpgpu_num_reg_banks                   16 # Number of register banks (default = 8)
-gpgpu_reg_bank_use_warp_id                    0 # Use warp ID in mapping registers to banks (default = off)
-gpgpu_sub_core_model                    1 # Sub Core Volta/Pascal model (default = off)
-gpgpu_enable_specialized_operand_collector                    0 # enable_specialized_operand_collector
-gpgpu_operand_collector_num_units_sp                    4 # number of collector units (default = 4)
-gpgpu_operand_collector_num_units_dp                    0 # number of collector units (default = 0)
-gpgpu_operand_collector_num_units_sfu                    4 # number of collector units (default = 4)
-gpgpu_operand_collector_num_units_int                    0 # number of collector units (default = 0)
-gpgpu_operand_collector_num_units_tensor_core                    4 # number of collector units (default = 4)
-gpgpu_operand_collector_num_units_mem                    2 # number of collector units (default = 2)
-gpgpu_operand_collector_num_units_gen                    8 # number of collector units (default = 0)
-gpgpu_operand_collector_num_in_ports_sp                    1 # number of collector unit in ports (default = 1)
-gpgpu_operand_collector_num_in_ports_dp                    0 # number of collector unit in ports (default = 0)
-gpgpu_operand_collector_num_in_ports_sfu                    1 # number of collector unit in ports (default = 1)
-gpgpu_operand_collector_num_in_ports_int                    0 # number of collector unit in ports (default = 0)
-gpgpu_operand_collector_num_in_ports_tensor_core                    1 # number of collector unit in ports (default = 1)
-gpgpu_operand_collector_num_in_ports_mem                    1 # number of collector unit in ports (default = 1)
-gpgpu_operand_collector_num_in_ports_gen                    8 # number of collector unit in ports (default = 0)
-gpgpu_operand_collector_num_out_ports_sp                    1 # number of collector unit in ports (default = 1)
-gpgpu_operand_collector_num_out_ports_dp                    0 # number of collector unit in ports (default = 0)
-gpgpu_operand_collector_num_out_ports_sfu                    1 # number of collector unit in ports (default = 1)
-gpgpu_operand_collector_num_out_ports_int                    0 # number of collector unit in ports (default = 0)
-gpgpu_operand_collector_num_out_ports_tensor_core                    1 # number of collector unit in ports (default = 1)
-gpgpu_operand_collector_num_out_ports_mem                    1 # number of collector unit in ports (default = 1)
-gpgpu_operand_collector_num_out_ports_gen                    8 # number of collector unit in ports (default = 0)
-gpgpu_coalesce_arch                   61 # Coalescing arch (GT200 = 13, Fermi = 20)
-gpgpu_num_sched_per_core                    4 # Number of warp schedulers per core
-gpgpu_max_insn_issue_per_warp                    2 # Max number of instructions that can be issued per warp in one cycle by scheduler (either 1 or 2)
-gpgpu_dual_issue_diff_exec_units                    1 # should dual issue use two different execution unit resources (Default = 1)
-gpgpu_simt_core_sim_order                    1 # Select the simulation order of cores in a cluster (0=Fix, 1=Round-Robin)
-gpgpu_pipeline_widths 4,0,0,4,4,4,0,0,4,4,8 # Pipeline widths ID_OC_SP,ID_OC_DP,ID_OC_INT,ID_OC_SFU,ID_OC_MEM,OC_EX_SP,OC_EX_DP,OC_EX_INT,OC_EX_SFU,OC_EX_MEM,EX_WB,ID_OC_TENSOR_CORE,OC_EX_TENSOR_CORE
-gpgpu_tensor_core_avail                    0 # Tensor Core Available (default=0)
-gpgpu_num_sp_units                     4 # Number of SP units (default=1)
-gpgpu_num_dp_units                     0 # Number of DP units (default=0)
-gpgpu_num_int_units                    0 # Number of INT units (default=0)
-gpgpu_num_sfu_units                    4 # Number of SF units (default=1)
-gpgpu_num_tensor_core_units                    0 # Number of tensor_core units (default=1)
-gpgpu_num_mem_units                    1 # Number if ldst units (default=1) WARNING: not hooked up to anything
-gpgpu_scheduler                      gto # Scheduler configuration: < lrr | gto | two_level_active > If two_level_active:<num_active_warps>:<inner_prioritization>:<outer_prioritization>For complete list of prioritization values see shader.h enum scheduler_prioritization_typeDefault: gto
-gpgpu_concurrent_kernel_sm                    0 # Support concurrent kernels on a SM (default = disabled)
-gpgpu_perfect_inst_const_cache                    1 # perfect inst and const cache mode, so all inst and const hits in the cache(default = disabled)
-gpgpu_inst_fetch_throughput                    8 # the number of fetched intruction per warp each cycle
-gpgpu_reg_file_port_throughput                    2 # the number ports of the register file
-specialized_unit_1         0,4,4,4,4,BRA # specialized unit config {<enabled>,<num_units>:<latency>:<initiation>,<ID_OC_SPEC>:<OC_EX_SPEC>,<NAME>}
-specialized_unit_2         0,4,4,4,4,BRA # specialized unit config {<enabled>,<num_units>:<latency>:<initiation>,<ID_OC_SPEC>:<OC_EX_SPEC>,<NAME>}
-specialized_unit_3         0,4,4,4,4,BRA # specialized unit config {<enabled>,<num_units>:<latency>:<initiation>,<ID_OC_SPEC>:<OC_EX_SPEC>,<NAME>}
-specialized_unit_4         0,4,4,4,4,BRA # specialized unit config {<enabled>,<num_units>:<latency>:<initiation>,<ID_OC_SPEC>:<OC_EX_SPEC>,<NAME>}
-specialized_unit_5         0,4,4,4,4,BRA # specialized unit config {<enabled>,<num_units>:<latency>:<initiation>,<ID_OC_SPEC>:<OC_EX_SPEC>,<NAME>}
-specialized_unit_6         0,4,4,4,4,BRA # specialized unit config {<enabled>,<num_units>:<latency>:<initiation>,<ID_OC_SPEC>:<OC_EX_SPEC>,<NAME>}
-specialized_unit_7         0,4,4,4,4,BRA # specialized unit config {<enabled>,<num_units>:<latency>:<initiation>,<ID_OC_SPEC>:<OC_EX_SPEC>,<NAME>}
-specialized_unit_8         0,4,4,4,4,BRA # specialized unit config {<enabled>,<num_units>:<latency>:<initiation>,<ID_OC_SPEC>:<OC_EX_SPEC>,<NAME>}
-gpgpu_perf_sim_memcpy                    1 # Fill the L2 cache on memcpy
-gpgpu_simple_dram_model                    0 # simple_dram_model with fixed latency and BW
-gpgpu_dram_scheduler                    1 # 0 = fifo, 1 = FR-FCFS (defaul)
-gpgpu_dram_partition_queues          32:32:32:32 # i2$:$2d:d2$:$2i
-l2_ideal                               0 # Use a ideal L2 cache that always hit
-gpgpu_cache:dl2     S:64:128:16,L:B:m:L:P,A:256:64,16:0,32 # unified banked L2 data cache config  {<nsets>:<bsize>:<assoc>,<rep>:<wr>:<alloc>:<wr_alloc>,<mshr>:<N>:<merge>,<mq>}
-gpgpu_cache:dl2_texture_only                    0 # L2 cache used for texture only
-gpgpu_n_mem                           12 # number of memory modules (e.g. memory controllers) in gpu
-gpgpu_n_sub_partition_per_mchannel                    2 # number of memory subpartition in each memory module
-gpgpu_n_mem_per_ctrlr                    1 # number of memory chips per memory controller
-gpgpu_memlatency_stat                   14 # track and display latency statistics 0x2 enables MC, 0x4 enables queue logs
-gpgpu_frfcfs_dram_sched_queue_size                   64 # 0 = unlimited (default); # entries per chip
-gpgpu_dram_return_queue_size                   64 # 0 = unlimited (default); # entries per chip
-gpgpu_dram_buswidth                    4 # default = 4 bytes (8 bytes per cycle at DDR)
-gpgpu_dram_burst_length                    8 # Burst length of each DRAM request (default = 4 data bus cycle)
-dram_data_command_freq_ratio                    4 # Frequency ratio between DRAM data bus and command bus (default = 2 times, i.e. DDR)
-gpgpu_dram_timing_opt nbk=16:CCD=2:RRD=8:RCD=16:RAS=37:RP=16:RC=52: CL=16:WL=6:CDLR=7:WR=16:nbkgrp=4:CCDL=4:RTPL=3 # DRAM timing parameters = {nbk:tCCD:tRRD:tRCD:tRAS:tRP:tRC:CL:WL:tCDLR:tWR:nbkgrp:tCCDL:tRTPL}
-gpgpu_l2_rop_latency                  120 # ROP queue latency (default 85)
-dram_latency                         100 # DRAM latency (default 30)
-dram_dual_bus_interface                    0 # dual_bus_interface (default = 0) 
-dram_bnk_indexing_policy                    0 # dram_bnk_indexing_policy (0 = normal indexing, 1 = Xoring with the higher bits) (Default = 0)
-dram_bnkgrp_indexing_policy                    1 # dram_bnkgrp_indexing_policy (0 = take higher bits, 1 = take lower bits) (Default = 0)
-dram_seperate_write_queue_enable                    0 # Seperate_Write_Queue_Enable
-dram_write_queue_size             32:28:16 # Write_Queue_Size
-dram_elimnate_rw_turnaround                    0 # elimnate_rw_turnaround i.e set tWTR and tRTW = 0
-icnt_flit_size                        40 # icnt_flit_size
-gpgpu_mem_addr_mapping dramid@8;00000000.00000000.00000000.00000000.0000RRRR.RRRRRRRR.RBBBCCCC.BCCSSSSS # mapping memory address to dram model {dramid@<start bit>;<memory address map>}
-gpgpu_mem_addr_test                    0 # run sweep test to check address mapping for aliased address
-gpgpu_mem_address_mask                    1 # 0 = old addressing mask, 1 = new addressing mask, 2 = new add. mask + flipped bank sel and chip sel bits
-gpgpu_memory_partition_indexing                    4 # 0 = no indexing, 1 = bitwise xoring, 2 = IPoly, 3 = custom indexing
-gpuwattch_xml_file         gpuwattch.xml # GPUWattch XML file
-power_simulation_enabled                    0 # Turn on power simulator (1=On, 0=Off)
-power_per_cycle_dump                    0 # Dump detailed power output each cycle
-power_trace_enabled                    0 # produce a file for the power trace (1=On, 0=Off)
-power_trace_zlevel                     6 # Compression level of the power trace output log (0=no comp, 9=highest)
-steady_power_levels_enabled                    0 # produce a file for the steady power levels (1=On, 0=Off)
-steady_state_definition                  8:4 # allowed deviation:number of samples
-gpgpu_max_cycle                        0 # terminates gpu simulation early (0 = no limit)
-gpgpu_max_insn                         0 # terminates gpu simulation early (0 = no limit)
-gpgpu_max_cta                          0 # terminates gpu simulation early (0 = no limit)
-gpgpu_max_completed_cta                    0 # terminates gpu simulation early (0 = no limit)
-gpgpu_runtime_stat                   500 # display runtime statistics such as dram utilization {<freq>:<flag>}
-liveness_message_freq                    1 # Minimum number of seconds between simulation liveness messages (0 = always print)
-gpgpu_compute_capability_major                    6 # Major compute capability version number
-gpgpu_compute_capability_minor                    1 # Minor compute capability version number
-gpgpu_flush_l1_cache                    1 # Flush L1 cache at the end of each kernel call
-gpgpu_flush_l2_cache                    0 # Flush L2 cache at the end of each kernel call
-gpgpu_deadlock_detect                    1 # Stop the simulation at deadlock (1=on (default), 0=off)
-gpgpu_ptx_instruction_classification                    0 # if enabled will classify ptx instruction types per kernel (Max 255 kernels now)
-gpgpu_ptx_sim_mode                     0 # Select between Performance (default) or Functional simulation (1)
-gpgpu_clock_domains 1417.0:1417.0:1417.0:2500.0 # Clock Domain Frequencies in MhZ {<Core Clock>:<ICNT Clock>:<L2 Clock>:<DRAM Clock>}
-gpgpu_max_concurrent_kernel                    8 # maximum kernels that can run concurrently on GPU
-gpgpu_cflog_interval                    0 # Interval between each snapshot in control flow logger
-visualizer_enabled                     0 # Turn on visualizer output (1=On, 0=Off)
-visualizer_outputfile                 NULL # Specifies the output log file for visualizer
-visualizer_zlevel                      6 # Compression level of the visualizer output log (0=no comp, 9=highest)
-gpgpu_stack_size_limit                 1024 # GPU thread stack size
-gpgpu_heap_size_limit              8388608 # GPU malloc heap size 
-gpgpu_runtime_sync_depth_limit                    2 # GPU device runtime synchronize depth
-gpgpu_runtime_pending_launch_count_limit                 2048 # GPU device runtime pending launch count
-trace_enabled                          0 # Turn on traces
-trace_components                    none # comma seperated list of traces to enable. Complete list found in trace_streams.tup. Default none
-trace_sampling_core                    0 # The core which is printed using CORE_DPRINTF. Default 0
-trace_sampling_memory_partition                   -1 # The memory partition which is printed using MEMPART_DPRINTF. Default -1 (i.e. all)
-enable_ptx_file_line_stats                    1 # Turn on PTX source line statistic profiling. (1 = On)
-ptx_line_stats_filename gpgpu_inst_stats.txt # Output file for PTX source line statistics.
-gpgpu_kernel_launch_latency                 5000 # Kernel launch latency in cycles. Default: 0
-gpgpu_cdp_enabled                      0 # Turn on CDP
-gpgpu_TB_launch_latency                    0 # thread block launch latency in cycles. Default: 0
DRAM Timing Options:
nbk                                    16 # number of banks
CCD                                     2 # column to column delay
RRD                                     8 # minimal delay between activation of rows in different banks
RCD                                    16 # row to column delay
RAS                                    37 # time needed to activate row
RP                                     16 # time needed to precharge (deactivate) row
RC                                     52 # row cycle time
CDLR                                    7 # switching from write to read (changes tWTR)
WR                                     16 # last data-in to row precharge
CL                                     16 # CAS latency
WL                                      6 # Write latency
nbkgrp                                  4 # number of bank groups
CCDL                                    4 # column to column delay between accesses to different bank groups
RTPL                                    3 # read to precharge delay between accesses to different bank groups
Total number of memory sub partition = 24
addr_dec_mask[CHIP]  = 0000000000000000 	high:64 low:0
addr_dec_mask[BK]    = 0000000000007080 	high:15 low:7
addr_dec_mask[ROW]   = 000000000fff8000 	high:28 low:15
addr_dec_mask[COL]   = 0000000000000f7f 	high:12 low:0
addr_dec_mask[BURST] = 000000000000001f 	high:5 low:0
sub_partition_id_mask = 0000000000000080
GPGPU-Sim uArch: clock freqs: 1417000000.000000:1417000000.000000:1417000000.000000:2500000000.000000
GPGPU-Sim uArch: clock periods: 0.00000000070571630205:0.00000000070571630205:0.00000000070571630205:0.00000000040000000000
*** Initializing Memory Statistics ***
GPGPU-Sim uArch: interconnect node map (shaderID+MemID to icntID)
GPGPU-Sim uArch: Memory nodes ID start from index: 28
GPGPU-Sim uArch:    0   1   2   3   4   5   6
GPGPU-Sim uArch:    7   8   9  10  11  12  13
GPGPU-Sim uArch:   14  15  16  17  18  19  20
GPGPU-Sim uArch:   21  22  23  24  25  26  27
GPGPU-Sim uArch:   28  29  30  31  32  33  34
GPGPU-Sim uArch:   35  36  37  38  39  40  41
GPGPU-Sim uArch:   42  43  44  45  46  47  48
GPGPU-Sim uArch:   49  50  51
GPGPU-Sim uArch: interconnect node reverse map (icntID to shaderID+MemID)
GPGPU-Sim uArch: Memory nodes start from ID: 28
GPGPU-Sim uArch:    0   1   2   3   4   5   6
GPGPU-Sim uArch:    7   8   9  10  11  12  13
GPGPU-Sim uArch:   14  15  16  17  18  19  20
GPGPU-Sim uArch:   21  22  23  24  25  26  27
GPGPU-Sim uArch:   28  29  30  31  32  33  34
GPGPU-Sim uArch:   35  36  37  38  39  40  41
GPGPU-Sim uArch:   42  43  44  45  46  47  48
GPGPU-Sim uArch:   49  50  51
c745fd1ccb20a7a2e196e1fcabc7bd77  /home/aman/gpu-rodinia/cuda/pathfinder/a.out
Extracting PTX file and ptxas options    1: a.1.sm_52.ptx -arch=sm_52
GPGPU-Sim uArch: performance model initialization complete.
self exe links to: /home/aman/gpu-rodinia/cuda/pathfinder/a.out
self exe links to: /home/aman/gpu-rodinia/cuda/pathfinder/a.out
11.0
GPGPU-Sim PTX: __cudaRegisterFatBinary, fat_cubin_handle = 1, filename=default
self exe links to: /home/aman/gpu-rodinia/cuda/pathfinder/a.out
Running md5sum using "md5sum /home/aman/gpu-rodinia/cuda/pathfinder/a.out "
self exe links to: /home/aman/gpu-rodinia/cuda/pathfinder/a.out
Extracting specific PTX file named a.1.sm_52.ptx 
GPGPU-Sim PTX: __cudaRegisterFunction _Z14dynproc_kerneliPiS_S_iiii : hostFun 0x0x5620e138fba4, fat_cubin_handle = 1
GPGPU-Sim PTX: Parsing a.1.sm_52.ptx
GPGPU-Sim PTX: allocating shared region for "_ZZ14dynproc_kerneliPiS_S_iiiiE4prev" from 0x0 to 0x400 (shared memory space)
GPGPU-Sim PTX: allocating shared region for "_ZZ14dynproc_kerneliPiS_S_iiiiE6result" from 0x400 to 0x800 (shared memory space)
GPGPU-Sim PTX: instruction assembly for function '_Z14dynproc_kerneliPiS_S_iiii'...   done.
GPGPU-Sim PTX: finished parsing EMBEDDED .ptx file a.1.sm_52.ptx
GPGPU-Sim PTX: loading globals with explicit initializers... 
GPGPU-Sim PTX: finished loading globals (0 bytes total).
GPGPU-Sim PTX: loading constants with explicit initializers...  done.
GPGPU-Sim PTX: Loading PTXInfo from a.1.sm_52.ptx
GPGPU-Sim PTX: Kernel '_Z14dynproc_kerneliPiS_S_iiii' : regs=18, lmem=0, smem=2048, cmem=368
pyramidHeight: 20
gridSize: [10000]
border:[20]
blockSize: 256
blockGrid:[47]
targetBlock:[216]
GPGPU-Sim PTX: Setting up arguments for 4 bytes starting at 0x7ffd6ee3487c..
GPGPU-Sim PTX: Setting up arguments for 8 bytes starting at 0x7ffd6ee34870..
GPGPU-Sim PTX: Setting up arguments for 8 bytes starting at 0x7ffd6ee34868..
GPGPU-Sim PTX: Setting up arguments for 8 bytes starting at 0x7ffd6ee34860..
GPGPU-Sim PTX: Setting up arguments for 4 bytes starting at 0x7ffd6ee34878..
GPGPU-Sim PTX: Setting up arguments for 4 bytes starting at 0x7ffd6ee3485c..
GPGPU-Sim PTX: Setting up arguments for 4 bytes starting at 0x7ffd6ee34910..
GPGPU-Sim PTX: Setting up arguments for 4 bytes starting at 0x7ffd6ee34918..

GPGPU-Sim PTX: cudaLaunch for 0x0x5620e138fba4 (mode=performance simulation) on stream 0
GPGPU-Sim PTX: finding reconvergence points for '_Z14dynproc_kerneliPiS_S_iiii'...
GPGPU-Sim PTX: Finding dominators for '_Z14dynproc_kerneliPiS_S_iiii'...
GPGPU-Sim PTX: Finding immediate dominators for '_Z14dynproc_kerneliPiS_S_iiii'...
GPGPU-Sim PTX: Finding postdominators for '_Z14dynproc_kerneliPiS_S_iiii'...
GPGPU-Sim PTX: Finding immediate postdominators for '_Z14dynproc_kerneliPiS_S_iiii'...
GPGPU-Sim PTX: pre-decoding instructions for '_Z14dynproc_kerneliPiS_S_iiii'...
GPGPU-Sim PTX: reconvergence points for _Z14dynproc_kerneliPiS_S_iiii...
GPGPU-Sim PTX:  1 (potential) branch divergence @  PC=0x0c0 (a.1.sm_52.ptx:61) @!%p3 bra BB0_2;
GPGPU-Sim PTX:    immediate post dominator      @  PC=0x110 (a.1.sm_52.ptx:75) bar.sync 0;
GPGPU-Sim PTX:  2 (potential) branch divergence @  PC=0x0c8 (a.1.sm_52.ptx:62) bra.uni BB0_1;
GPGPU-Sim PTX:    immediate post dominator      @  PC=0x0d0 (a.1.sm_52.ptx:65) cvta.to.global.u64 %rd4, %rd2;
GPGPU-Sim PTX:  3 (potential) branch divergence @  PC=0x120 (a.1.sm_52.ptx:77) @%p4 bra BB0_10;
GPGPU-Sim PTX:    immediate post dominator      @  PC=0x338 (a.1.sm_52.ptx:157) and.b16 %rs6, %rs8, 255;
GPGPU-Sim PTX:  4 (potential) branch divergence @  PC=0x208 (a.1.sm_52.ptx:109) @!%p12 bra BB0_6;
GPGPU-Sim PTX:    immediate post dominator      @  PC=0x2b8 (a.1.sm_52.ptx:135) bar.sync 0;
GPGPU-Sim PTX:  5 (potential) branch divergence @  PC=0x210 (a.1.sm_52.ptx:110) bra.uni BB0_5;
GPGPU-Sim PTX:    immediate post dominator      @  PC=0x218 (a.1.sm_52.ptx:113) ld.shared.u32 %r70, [%r2];
GPGPU-Sim PTX:  6 (potential) branch divergence @  PC=0x2c8 (a.1.sm_52.ptx:137) @%p15 bra BB0_10;
GPGPU-Sim PTX:    immediate post dominator      @  PC=0x338 (a.1.sm_52.ptx:157) and.b16 %rs6, %rs8, 255;
GPGPU-Sim PTX:  7 (potential) branch divergence @  PC=0x2d8 (a.1.sm_52.ptx:140) @%p16 bra BB0_9;
GPGPU-Sim PTX:    immediate post dominator      @  PC=0x310 (a.1.sm_52.ptx:150) bar.sync 0;
GPGPU-Sim PTX:  8 (potential) branch divergence @  PC=0x330 (a.1.sm_52.ptx:154) @%p17 bra BB0_4;
GPGPU-Sim PTX:    immediate post dominator      @  PC=0x338 (a.1.sm_52.ptx:157) and.b16 %rs6, %rs8, 255;
GPGPU-Sim PTX:  9 (potential) branch divergence @  PC=0x348 (a.1.sm_52.ptx:159) @%p18 bra BB0_12;
GPGPU-Sim PTX:    immediate post dominator      @  PC=0x390 (a.1.sm_52.ptx:171) ret;
GPGPU-Sim PTX: ... end of reconvergence points for _Z14dynproc_kerneliPiS_S_iiii
GPGPU-Sim PTX: ... done pre-decoding instructions for '_Z14dynproc_kerneliPiS_S_iiii'.
GPGPU-Sim PTX: pushing kernel '_Z14dynproc_kerneliPiS_S_iiii' to stream 0, gridDim= (47,1,1) blockDim = (256,1,1) 
GPGPU-Sim uArch: Shader 0 bind to kernel 1 '_Z14dynproc_kerneliPiS_S_iiii'
GPGPU-Sim uArch: CTA/core = 8, limited by: threads
GPGPU-Sim uArch: Shader 1 bind to kernel 1 '_Z14dynproc_kerneliPiS_S_iiii'
GPGPU-Sim uArch: Shader 2 bind to kernel 1 '_Z14dynproc_kerneliPiS_S_iiii'
GPGPU-Sim uArch: Shader 3 bind to kernel 1 '_Z14dynproc_kerneliPiS_S_iiii'
GPGPU-Sim uArch: Shader 4 bind to kernel 1 '_Z14dynproc_kerneliPiS_S_iiii'
GPGPU-Sim uArch: Shader 5 bind to kernel 1 '_Z14dynproc_kerneliPiS_S_iiii'
GPGPU-Sim uArch: Shader 6 bind to kernel 1 '_Z14dynproc_kerneliPiS_S_iiii'
GPGPU-Sim uArch: Shader 7 bind to kernel 1 '_Z14dynproc_kerneliPiS_S_iiii'
GPGPU-Sim uArch: Shader 8 bind to kernel 1 '_Z14dynproc_kerneliPiS_S_iiii'
GPGPU-Sim uArch: Shader 9 bind to kernel 1 '_Z14dynproc_kerneliPiS_S_iiii'
GPGPU-Sim uArch: Shader 10 bind to kernel 1 '_Z14dynproc_kerneliPiS_S_iiii'
GPGPU-Sim uArch: Shader 11 bind to kernel 1 '_Z14dynproc_kerneliPiS_S_iiii'
GPGPU-Sim uArch: Shader 12 bind to kernel 1 '_Z14dynproc_kerneliPiS_S_iiii'
GPGPU-Sim uArch: Shader 13 bind to kernel 1 '_Z14dynproc_kerneliPiS_S_iiii'
GPGPU-Sim uArch: Shader 14 bind to kernel 1 '_Z14dynproc_kerneliPiS_S_iiii'
GPGPU-Sim uArch: Shader 15 bind to kernel 1 '_Z14dynproc_kerneliPiS_S_iiii'
GPGPU-Sim uArch: Shader 16 bind to kernel 1 '_Z14dynproc_kerneliPiS_S_iiii'
GPGPU-Sim uArch: Shader 17 bind to kernel 1 '_Z14dynproc_kerneliPiS_S_iiii'
GPGPU-Sim uArch: Shader 18 bind to kernel 1 '_Z14dynproc_kerneliPiS_S_iiii'
GPGPU-Sim uArch: Shader 19 bind to kernel 1 '_Z14dynproc_kerneliPiS_S_iiii'
GPGPU-Sim uArch: Shader 20 bind to kernel 1 '_Z14dynproc_kerneliPiS_S_iiii'
GPGPU-Sim uArch: Shader 21 bind to kernel 1 '_Z14dynproc_kerneliPiS_S_iiii'
GPGPU-Sim uArch: Shader 22 bind to kernel 1 '_Z14dynproc_kerneliPiS_S_iiii'
GPGPU-Sim uArch: Shader 23 bind to kernel 1 '_Z14dynproc_kerneliPiS_S_iiii'
GPGPU-Sim uArch: Shader 24 bind to kernel 1 '_Z14dynproc_kerneliPiS_S_iiii'
GPGPU-Sim uArch: Shader 25 bind to kernel 1 '_Z14dynproc_kerneliPiS_S_iiii'
GPGPU-Sim uArch: Shader 26 bind to kernel 1 '_Z14dynproc_kerneliPiS_S_iiii'
GPGPU-Sim uArch: Shader 27 bind to kernel 1 '_Z14dynproc_kerneliPiS_S_iiii'
Destroy streams for kernel 1: size 0
kernel_name = _Z14dynproc_kerneliPiS_S_iiii 
kernel_launch_uid = 1 
gpu_sim_cycle = 18263
gpu_sim_insn = 12710760
gpu_ipc =     695.9843
gpu_tot_sim_cycle = 18263
gpu_tot_sim_insn = 12710760
gpu_tot_ipc =     695.9843
gpu_tot_issued_cta = 47
gpu_occupancy = 20.8703% 
gpu_tot_occupancy = 20.8703% 
max_total_param_size = 0
gpu_stall_dramfull = 0
gpu_stall_icnt2sh    = 0
partiton_level_parallism =       2.0774
partiton_level_parallism_total  =       2.0774
partiton_level_parallism_util =       3.6400
partiton_level_parallism_util_total  =       3.6400
L2_BW  =      94.1987 GB/Sec
L2_BW_total  =      94.1987 GB/Sec
gpu_total_sim_rate=1059230

========= Core cache stats =========
L1I_cache:
	L1I_total_cache_accesses = 0
	L1I_total_cache_misses = 0
	L1I_total_cache_pending_hits = 0
	L1I_total_cache_reservation_fails = 0
L1D_cache:
	L1D_cache_core[0]: Access = 0, Miss = 0, Miss_rate = -nan, Pending_hits = 0, Reservation_fails = 0
	L1D_cache_core[1]: Access = 0, Miss = 0, Miss_rate = -nan, Pending_hits = 0, Reservation_fails = 0
	L1D_cache_core[2]: Access = 0, Miss = 0, Miss_rate = -nan, Pending_hits = 0, Reservation_fails = 0
	L1D_cache_core[3]: Access = 0, Miss = 0, Miss_rate = -nan, Pending_hits = 0, Reservation_fails = 0
	L1D_cache_core[4]: Access = 0, Miss = 0, Miss_rate = -nan, Pending_hits = 0, Reservation_fails = 0
	L1D_cache_core[5]: Access = 0, Miss = 0, Miss_rate = -nan, Pending_hits = 0, Reservation_fails = 0
	L1D_cache_core[6]: Access = 0, Miss = 0, Miss_rate = -nan, Pending_hits = 0, Reservation_fails = 0
	L1D_cache_core[7]: Access = 0, Miss = 0, Miss_rate = -nan, Pending_hits = 0, Reservation_fails = 0
	L1D_cache_core[8]: Access = 0, Miss = 0, Miss_rate = -nan, Pending_hits = 0, Reservation_fails = 0
	L1D_cache_core[9]: Access = 0, Miss = 0, Miss_rate = -nan, Pending_hits = 0, Reservation_fails = 0
	L1D_cache_core[10]: Access = 0, Miss = 0, Miss_rate = -nan, Pending_hits = 0, Reservation_fails = 0
	L1D_cache_core[11]: Access = 0, Miss = 0, Miss_rate = -nan, Pending_hits = 0, Reservation_fails = 0
	L1D_cache_core[12]: Access = 0, Miss = 0, Miss_rate = -nan, Pending_hits = 0, Reservation_fails = 0
	L1D_cache_core[13]: Access = 0, Miss = 0, Miss_rate = -nan, Pending_hits = 0, Reservation_fails = 0
	L1D_cache_core[14]: Access = 0, Miss = 0, Miss_rate = -nan, Pending_hits = 0, Reservation_fails = 0
	L1D_cache_core[15]: Access = 0, Miss = 0, Miss_rate = -nan, Pending_hits = 0, Reservation_fails = 0
	L1D_cache_core[16]: Access = 0, Miss = 0, Miss_rate = -nan, Pending_hits = 0, Reservation_fails = 0
	L1D_cache_core[17]: Access = 0, Miss = 0, Miss_rate = -nan, Pending_hits = 0, Reservation_fails = 0
	L1D_cache_core[18]: Access = 0, Miss = 0, Miss_rate = -nan, Pending_hits = 0, Reservation_fails = 0
	L1D_cache_core[19]: Access = 0, Miss = 0, Miss_rate = -nan, Pending_hits = 0, Reservation_fails = 0
	L1D_cache_core[20]: Access = 0, Miss = 0, Miss_rate = -nan, Pending_hits = 0, Reservation_fails = 0
	L1D_cache_core[21]: Access = 0, Miss = 0, Miss_rate = -nan, Pending_hits = 0, Reservation_fails = 0
	L1D_cache_core[22]: Access = 0, Miss = 0, Miss_rate = -nan, Pending_hits = 0, Reservation_fails = 0
	L1D_cache_core[23]: Access = 0, Miss = 0, Miss_rate = -nan, Pending_hits = 0, Reservation_fails = 0
	L1D_cache_core[24]: Access = 0, Miss = 0, Miss_rate = -nan, Pending_hits = 0, Reservation_fails = 0
	L1D_cache_core[25]: Access = 0, Miss = 0, Miss_rate = -nan, Pending_hits = 0, Reservation_fails = 0
	L1D_cache_core[26]: Access = 0, Miss = 0, Miss_rate = -nan, Pending_hits = 0, Reservation_fails = 0
	L1D_cache_core[27]: Access = 0, Miss = 0, Miss_rate = -nan, Pending_hits = 0, Reservation_fails = 0
	L1D_total_cache_accesses = 0
	L1D_total_cache_misses = 0
	L1D_total_cache_pending_hits = 0
	L1D_total_cache_reservation_fails = 0
	L1D_cache_data_port_util = 0.000
	L1D_cache_fill_port_util = 0.000
L1C_cache:
	L1C_total_cache_accesses = 0
	L1C_total_cache_misses = 0
	L1C_total_cache_pending_hits = 0
	L1C_total_cache_reservation_fails = 0
L1T_cache:
	L1T_total_cache_accesses = 0
	L1T_total_cache_misses = 0
	L1T_total_cache_pending_hits = 0
	L1T_total_cache_reservation_fails = 0

Total_core_cache_stats:
	Total_core_cache_stats_breakdown[GLOBAL_ACC_R][HIT] = 0
	Total_core_cache_stats_breakdown[GLOBAL_ACC_R][HIT_RESERVED] = 0
	Total_core_cache_stats_breakdown[GLOBAL_ACC_R][MISS] = 0
	Total_core_cache_stats_breakdown[GLOBAL_ACC_R][RESERVATION_FAIL] = 0
	Total_core_cache_stats_breakdown[GLOBAL_ACC_R][SECTOR_MISS] = 0
	Total_core_cache_stats_breakdown[LOCAL_ACC_R][HIT] = 0
	Total_core_cache_stats_breakdown[LOCAL_ACC_R][HIT_RESERVED] = 0
	Total_core_cache_stats_breakdown[LOCAL_ACC_R][MISS] = 0
	Total_core_cache_stats_breakdown[LOCAL_ACC_R][RESERVATION_FAIL] = 0
	Total_core_cache_stats_breakdown[LOCAL_ACC_R][SECTOR_MISS] = 0
	Total_core_cache_stats_breakdown[CONST_ACC_R][HIT] = 0
	Total_core_cache_stats_breakdown[CONST_ACC_R][HIT_RESERVED] = 0
	Total_core_cache_stats_breakdown[CONST_ACC_R][MISS] = 0
	Total_core_cache_stats_breakdown[CONST_ACC_R][RESERVATION_FAIL] = 0
	Total_core_cache_stats_breakdown[CONST_ACC_R][SECTOR_MISS] = 0
	Total_core_cache_stats_breakdown[TEXTURE_ACC_R][HIT] = 0
	Total_core_cache_stats_breakdown[TEXTURE_ACC_R][HIT_RESERVED] = 0
	Total_core_cache_stats_breakdown[TEXTURE_ACC_R][MISS] = 0
	Total_core_cache_stats_breakdown[TEXTURE_ACC_R][RESERVATION_FAIL] = 0
	Total_core_cache_stats_breakdown[TEXTURE_ACC_R][SECTOR_MISS] = 0
	Total_core_cache_stats_breakdown[GLOBAL_ACC_W][HIT] = 0
	Total_core_cache_stats_breakdown[GLOBAL_ACC_W][HIT_RESERVED] = 0
	Total_core_cache_stats_breakdown[GLOBAL_ACC_W][MISS] = 0
	Total_core_cache_stats_breakdown[GLOBAL_ACC_W][RESERVATION_FAIL] = 0
	Total_core_cache_stats_breakdown[GLOBAL_ACC_W][SECTOR_MISS] = 0
	Total_core_cache_stats_breakdown[LOCAL_ACC_W][HIT] = 0
	Total_core_cache_stats_breakdown[LOCAL_ACC_W][HIT_RESERVED] = 0
	Total_core_cache_stats_breakdown[LOCAL_ACC_W][MISS] = 0
	Total_core_cache_stats_breakdown[LOCAL_ACC_W][RESERVATION_FAIL] = 0
	Total_core_cache_stats_breakdown[LOCAL_ACC_W][SECTOR_MISS] = 0
	Total_core_cache_stats_breakdown[L1_WRBK_ACC][HIT] = 0
	Total_core_cache_stats_breakdown[L1_WRBK_ACC][HIT_RESERVED] = 0
	Total_core_cache_stats_breakdown[L1_WRBK_ACC][MISS] = 0
	Total_core_cache_stats_breakdown[L1_WRBK_ACC][RESERVATION_FAIL] = 0
	Total_core_cache_stats_breakdown[L1_WRBK_ACC][SECTOR_MISS] = 0
	Total_core_cache_stats_breakdown[L2_WRBK_ACC][HIT] = 0
	Total_core_cache_stats_breakdown[L2_WRBK_ACC][HIT_RESERVED] = 0
	Total_core_cache_stats_breakdown[L2_WRBK_ACC][MISS] = 0
	Total_core_cache_stats_breakdown[L2_WRBK_ACC][RESERVATION_FAIL] = 0
	Total_core_cache_stats_breakdown[L2_WRBK_ACC][SECTOR_MISS] = 0
	Total_core_cache_stats_breakdown[INST_ACC_R][HIT] = 0
	Total_core_cache_stats_breakdown[INST_ACC_R][HIT_RESERVED] = 0
	Total_core_cache_stats_breakdown[INST_ACC_R][MISS] = 0
	Total_core_cache_stats_breakdown[INST_ACC_R][RESERVATION_FAIL] = 0
	Total_core_cache_stats_breakdown[INST_ACC_R][SECTOR_MISS] = 0
	Total_core_cache_stats_breakdown[L1_WR_ALLOC_R][HIT] = 0
	Total_core_cache_stats_breakdown[L1_WR_ALLOC_R][HIT_RESERVED] = 0
	Total_core_cache_stats_breakdown[L1_WR_ALLOC_R][MISS] = 0
	Total_core_cache_stats_breakdown[L1_WR_ALLOC_R][RESERVATION_FAIL] = 0
	Total_core_cache_stats_breakdown[L1_WR_ALLOC_R][SECTOR_MISS] = 0
	Total_core_cache_stats_breakdown[L2_WR_ALLOC_R][HIT] = 0
	Total_core_cache_stats_breakdown[L2_WR_ALLOC_R][HIT_RESERVED] = 0
	Total_core_cache_stats_breakdown[L2_WR_ALLOC_R][MISS] = 0
	Total_core_cache_stats_breakdown[L2_WR_ALLOC_R][RESERVATION_FAIL] = 0
	Total_core_cache_stats_breakdown[L2_WR_ALLOC_R][SECTOR_MISS] = 0

Total_core_cache_fail_stats:
ctas_completed 47, Shader 0 warp_id issue ditsribution:
warp_id:
0, 1, 2, 3, 4, 5, 6, 7, 8, 9, 10, 11, 12, 13, 14, 15, 
distro:
1246, 1246, 1246, 1246, 1246, 1246, 1246, 1246, 1246, 1246, 1246, 1246, 1246, 1246, 1246, 1246, 
gpgpu_n_tot_thrd_icount = 13941152
gpgpu_n_tot_w_icount = 435661
gpgpu_n_stall_shd_mem = 29778
gpgpu_n_mem_read_local = 0
gpgpu_n_mem_write_local = 0
gpgpu_n_mem_read_global = 36366
gpgpu_n_mem_write_global = 1574
gpgpu_n_mem_texture = 0
gpgpu_n_mem_const = 0
gpgpu_n_load_insn  = 229320
gpgpu_n_store_insn = 10000
gpgpu_n_shmem_insn = 1306720
gpgpu_n_sstarr_insn = 0
gpgpu_n_tex_insn = 0
gpgpu_n_const_mem_insn = 0
gpgpu_n_param_mem_insn = 84224
gpgpu_n_shmem_bkconflict = 0
gpgpu_n_cache_bkconflict = 0
gpgpu_n_intrawarp_mshr_merge = 0
gpgpu_n_cmem_portconflict = 0
gpgpu_stall_shd_mem[c_mem][resource_stall] = 0
gpgpu_stall_shd_mem[s_mem][bk_conf] = 0
gpgpu_stall_shd_mem[gl_mem][resource_stall] = 0
gpgpu_stall_shd_mem[gl_mem][coal_stall] = 29778
gpgpu_stall_shd_mem[gl_mem][data_port_stall] = 0
gpu_reg_bank_conflict_stalls = 0
Warp Occupancy Distribution:
Stall:5072	W0_Idle:28505	W0_Scoreboard:1017733	W1:0	W2:0	W3:0	W4:0	W5:0	W6:0	W7:0	W8:0	W9:0	W10:0	W11:0	W12:3219	W13:2484	W14:2484	W15:2484	W16:2484	W17:2484	W18:2484	W19:2484	W20:3035	W21:2484	W22:2484	W23:2484	W24:2484	W25:2484	W26:2484	W27:2484	W28:2484	W29:2484	W30:2484	W31:2484	W32:384695
single_issue_nums: WS0:94177	WS1:94181	WS2:94187	WS3:93790	
dual_issue_nums: WS0:7438	WS1:7436	WS2:7433	WS3:7356	
traffic_breakdown_coretomem[GLOBAL_ACC_R] = 290928 {8:36366,}
traffic_breakdown_coretomem[GLOBAL_ACC_W] = 62960 {40:1574,}
traffic_breakdown_memtocore[GLOBAL_ACC_R] = 1454640 {40:36366,}
traffic_breakdown_memtocore[GLOBAL_ACC_W] = 12592 {8:1574,}
maxmflatency = 358 
max_icnt2mem_latency = 95 
maxmrqlatency = 64 
max_icnt2sh_latency = 53 
averagemflatency = 235 
avg_icnt2mem_latency = 11 
avg_mrq_latency = 2 
avg_icnt2sh_latency = 9 
mrq_lat_table:15976 	2389 	1699 	1554 	888 	134 	2 	0 	0 	0 	0 	0 	0 	0 	0 	0 	0 	0 	0 	0 	0 	0 	0 	0 	0 	0 	0 	0 	0 	0 	0 	0 	
dq_lat_table:0 	0 	0 	0 	0 	0 	0 	0 	0 	0 	0 	0 	0 	0 	0 	0 	0 	0 	0 	0 	0 	0 	0 	0 	0 	0 	0 	0 	0 	0 	0 	0 	
mf_lat_table:0 	0 	0 	0 	0 	0 	0 	24810 	13130 	0 	0 	0 	0 	0 	0 	0 	0 	0 	0 	0 	0 	0 	0 	0 	0 	0 	0 	0 	0 	0 	0 	0 	
icnt2mem_lat_table:0 	0 	12978 	19000 	4489 	1345 	128 	0 	0 	0 	0 	0 	0 	0 	0 	0 	0 	0 	0 	0 	0 	0 	0 	0 	
icnt2sh_lat_table:0 	0 	17180 	18104 	2561 	95 	0 	0 	0 	0 	0 	0 	0 	0 	0 	0 	0 	0 	0 	0 	0 	0 	0 	0 	
mf_lat_pw_table:0 	0 	0 	0 	0 	0 	0 	24 	2 	0 	0 	0 	0 	0 	0 	0 	0 	0 	0 	0 	0 	0 	0 	0 	0 	0 	0 	0 	0 	0 	0 	0 	
maximum concurrent accesses to same row:
dram[0]:        52        72        52        64        56        56        60        52        52        52        72        32        48        64        24        32 
dram[1]:        56        60        40        68        80        64        44        60        36        28        40        48        56        40        60        68 
dram[2]:        52        56        32        44        40        76        72        56        28        28        64        64        44        24        76        40 
dram[3]:        64        36        56        52        36        52        24        60        72        76        44        56        56        52        76        92 
dram[4]:        80        72        52        56        64        56        48        48        44        60        72        64        60        76        72        60 
dram[5]:        52        40        56        52        56        56        76        60        60        56        44        44        68        76        60        52 
dram[6]:        60        44        24        68        40        56        48        60        40        48        52        60        56        52        56        56 
dram[7]:        52        56        72        36        76        44        68        72        36        48        68        64        28        44        32        72 
dram[8]:        84        56        56        44        64        68        48        96        88        64        56        40        76        52        64        48 
dram[9]:        48        52        72        36        68        48        76        32        40        36        32        64        52        68        44        52 
dram[10]:        64        44        84        56        68        48        60        40        60        64        48        48        56        80        72        72 
dram[11]:        40        56        60        76        56        80        56        44        64        40        60        68        76        60        48        40 
maximum service time to same row:
dram[0]:     10572     10567     11357     11336     12022     11961     12555     12938     13467     13485     14202     14351     15277     14956     15561     15563 
dram[1]:     10567     10457     11346     11449     11950     11967     12581     12559     13574     13532     14242     14386     14946     14949     15543     15574 
dram[2]:     10451     10434     11334     11363     11972     11978     12996     12856     13477     13571     14338     14197     14979     15137     15550     15576 
dram[3]:     10528     10520     11350     11376     12127     12114     12552     12871     13544     13622     14343     14365     14973     14952     15998     15547 
dram[4]:     10545     10514     11389     11501     11957     12097     12689     12712     13556     13473     14222     14206     14973     14948     15570     15973 
dram[5]:     10431     10520     11505     11354     11970     12320     12570     12568     13573     13630     14397     14351     14976     14982     15949     15639 
dram[6]:     10510     10561     11391     11373     11963     12033     12882     12876     13481     13544     14384     14193     14952     14941     15888     15559 
dram[7]:     10563     10752     11367     11368     12264     11959     12875     12937     13531     13634     14413     14377     14956     14952     15656     15594 
dram[8]:     10453     10515     11368     11338     11972     11949     12572     12549     13580     13579     14460     14474     14953     14963     15559     15542 
dram[9]:     10426     10558     11340     11589     12042     11991     12702     12568     13535     13548     14356     14358     14954     14976     15604     15900 
dram[10]:     10519     10583     11346     11344     11954     12239     12623     12695     13590     13532     14193     14341     14936     14967     15560     15587 
dram[11]:     10767     10546     11351     11359     12218     11966     12967     12926     13490     13558     14201     14401     14957     14935     15614     15573 
average row accesses per activate:
dram[0]: 72.000000 92.000000 42.000000 66.000000 112.000000 120.000000 120.000000 88.000000 112.000000 88.000000 116.000000 92.000000 92.000000 124.000000 60.000000 84.000000 
dram[1]: 73.000000 78.000000 50.000000 78.000000 160.000000 116.000000 80.000000 100.000000 96.000000 116.000000 104.000000 84.000000 108.000000 120.000000 152.000000 108.000000 
dram[2]: 92.000000 62.000000 48.000000 54.000000 100.000000 140.000000 112.000000 132.000000 104.000000 72.000000 116.000000 108.000000 108.000000 48.000000 152.000000 116.000000 
dram[3]: 82.000000 58.000000 66.000000 68.000000 108.000000 96.000000 92.000000 132.000000 120.000000 148.000000 92.000000 144.000000 116.000000 108.000000 128.000000 140.000000 
dram[4]: 98.000000 98.000000 54.000000 76.000000 120.000000 116.000000 112.000000 92.000000 124.000000 136.000000 132.000000 152.000000 132.000000 148.000000 132.000000 104.000000 
dram[5]: 74.000000 44.000000 60.000000 64.000000 124.000000 104.000000 120.000000 128.000000 96.000000 100.000000 108.000000 88.000000 112.000000 148.000000 84.000000 124.000000 
dram[6]: 68.000000 60.000000 58.000000 66.000000 100.000000 124.000000 100.000000 136.000000 84.000000 92.000000 100.000000 104.000000 84.000000 112.000000 96.000000 128.000000 
dram[7]: 76.000000 84.000000 64.000000 44.000000 124.000000 100.000000 112.000000 128.000000 84.000000 92.000000 136.000000 96.000000 88.000000 120.000000 120.000000 140.000000 
dram[8]: 72.000000 96.000000 66.000000 52.000000 120.000000 124.000000 116.000000 152.000000 140.000000 120.000000 96.000000 72.000000 140.000000 124.000000 120.000000 100.000000 
dram[9]: 62.000000 72.000000 76.000000 60.000000 128.000000 124.000000 172.000000 84.000000 96.000000 72.000000 100.000000 124.000000 128.000000 116.000000 108.000000 84.000000 
dram[10]: 80.000000 76.000000 74.000000 70.000000 108.000000 84.000000 112.000000 92.000000 112.000000 116.000000 100.000000 104.000000 116.000000 128.000000 156.000000 140.000000 
dram[11]: 64.000000 62.000000 64.000000 60.000000 96.000000 128.000000 92.000000 92.000000 100.000000 108.000000 104.000000 100.000000 136.000000 104.000000 88.000000 96.000000 
average row locality = 22642/240 = 94.341667
number of total memory accesses made:
dram[0]:         0         0         0         0         0         0         0         0         0         0         0         0         0         0         0         0 
dram[1]:         0         0         0         0         0         0         0         0         0         0         0         0         0         0         0         0 
dram[2]:         0         0         0         0         0         0         0         0         0         0         0         0         0         0         0         0 
dram[3]:         0         0         0         0         0         0         0         0         0         0         0         0         0         0         0         0 
dram[4]:         0         0         0         0         0         0         0         0         0         0         0         0         0         0         0         0 
dram[5]:         0         0         0         0         0         0         0         0         0         0         0         0         0         0         0         0 
dram[6]:         0         0         0         0         0         0         0         0         0         0         0         0         0         0         0         0 
dram[7]:         0         0         0         0         0         0         0         0         0         0         0         0         0         0         0         0 
dram[8]:         0         0         0         0         0         0         0         0         0         0         0         0         0         0         0         0 
dram[9]:         0         0         0         0         0         0         0         0         0         0         0         0         0         0         0         0 
dram[10]:         0         0         0         0         0         0         0         0         0         0         0         0         0         0         0         0 
dram[11]:         0         0         0         0         0         0         0         0         0         0         0         0         0         0         0         0 
total accesses: 0
min_bank_accesses = 0!
min_chip_accesses = 0!
number of total read accesses:
dram[0]:       144       184        84       132       112       120       120        88       112        88       116        92        92       124        60        84 
dram[1]:       146       156       100       156       160       116        80       100        96       116       104        84       108       120       152       108 
dram[2]:       184       124        96       108       100       140       112       132       104        72       116       108       108        48       152       116 
dram[3]:       164       116       132       136       108        96        92       132       120       148        92       144       116       108       128       140 
dram[4]:       196       196       108       152       120       116       112        92       124       136       132       152       132       148       132       104 
dram[5]:       148        88       120       128       124       104       120       128        96       100       108        88       112       148        84       124 
dram[6]:       136       120       116       132       100       124       100       136        84        92       100       104        84       112        96       128 
dram[7]:       152       168       128        88       124       100       112       128        84        92       136        96        88       120       120       140 
dram[8]:       144       192       132       104       120       124       116       152       140       120        96        72       140       124       120       100 
dram[9]:       124       144       152       120       128       124       172        84        96        72       100       124       128       116       108        84 
dram[10]:       160       152       148       140       108        84       112        92       112       116       100       104       116       128       156       140 
dram[11]:       128       124       128       120        96       128        92        92       100       108       104       100       136       104        88        96 
total dram reads = 22642
bank skew: 196/48 = 4.08
chip skew: 2152/1744 = 1.23
number of total write accesses:
dram[0]:         0         0         0         0         0         0         0         0         0         0         0         0         0         0         0         0 
dram[1]:         0         0         0         0         0         0         0         0         0         0         0         0         0         0         0         0 
dram[2]:         0         0         0         0         0         0         0         0         0         0         0         0         0         0         0         0 
dram[3]:         0         0         0         0         0         0         0         0         0         0         0         0         0         0         0         0 
dram[4]:         0         0         0         0         0         0         0         0         0         0         0         0         0         0         0         0 
dram[5]:         0         0         0         0         0         0         0         0         0         0         0         0         0         0         0         0 
dram[6]:         0         0         0         0         0         0         0         0         0         0         0         0         0         0         0         0 
dram[7]:         0         0         0         0         0         0         0         0         0         0         0         0         0         0         0         0 
dram[8]:         0         0         0         0         0         0         0         0         0         0         0         0         0         0         0         0 
dram[9]:         0         0         0         0         0         0         0         0         0         0         0         0         0         0         0         0 
dram[10]:         0         0         0         0         0         0         0         0         0         0         0         0         0         0         0         0 
dram[11]:         0         0         0         0         0         0         0         0         0         0         0         0         0         0         0         0 
total dram writes = 0
min_bank_accesses = 0!
min_chip_accesses = 0!
average mf latency per bank:
dram[0]:        388       407       537       442       380       379       412       393       365       364       398       391       380       354       431       379
dram[1]:        378       401       464       401       349       409       369       426       368       342       390       382       359       344       377       389
dram[2]:        399       484       424       427       376       375       354       379       408       493       378       361       363       411       378       388
dram[3]:        409       427       453       424       359       399       377       378       380       390       373       367       377       355       357       376
dram[4]:        392       384       465       431       398       371       381       372       349       340       385       351       343       341       350       384
dram[5]:        481       548       422       441       393       401       384       380       441       377       369       359       359       355       334       351
dram[6]:        476       438       455       436       336       389       386       367       423       396       368       399       396       354       370       360
dram[7]:        414       396       389       469       398       419       393       387       378       388       366       358       360       351       337       337
dram[8]:        399       424       429       398       381       387       370       352       353       386       373       433       351       338       375       340
dram[9]:        421       420       404       436       430       353       384       385       416       475       358       374       352       380       343       353
dram[10]:        455       422       468       392       409       375       370       385       383       398       393       405       351       396       345       352
dram[11]:        388       405       455       488       382       395       436       409       403       373       344       432       392       356       346       389
maximum mf latency per bank:
dram[0]:        302       352       278       278       298       292       285       286       282       287       285       271       270       271       276       277
dram[1]:        288       321       284       288       319       293       280       284       272       271       274       269       268       271       276       271
dram[2]:        307       324       296       279       302       328       300       291       283       286       279       292       280       278       270       281
dram[3]:        330       327       281       299       286       288       292       289       287       297       271       271       279       272       271       276
dram[4]:        358       336       311       294       294       294       284       287       288       276       278       280       284       274       284       282
dram[5]:        345       281       282       282       290       319       291       283       282       286       280       271       285       290       269       279
dram[6]:        318       301       301       305       286       286       283       294       281       276       274       269       282       270       274       274
dram[7]:        320       335       277       281       294       297       282       305       271       280       273       274       280       278       276       272
dram[8]:        334       356       300       296       296       328       297       305       302       300       271       276       276       283       279       270
dram[9]:        301       315       287       300       294       310       302       300       276       272       270       279       280       290       278       272
dram[10]:        355       324       299       301       306       308       288       285       279       281       270       271       269       276       272       276
dram[11]:        312       299       282       285       296       291       288       289       281       272       284       284       284       279       270       281
Memory Partition 0: 
Cache L2_bank_000:
MSHR contents

Cache L2_bank_001:
MSHR contents

In Dram Latency Queue (total = 0): 
DRAM[0]: 16 bks, busW=4 BL=8 CL=16, tRRD=8 tCCD=2, tRCD=16 tRAS=37 tRP=16 tRC=52
n_cmd=32220 n_nop=30412 n_act=36 n_pre=20 n_ref_event=0 n_req=1752 n_rd=1752 n_rd_L2_A=0 n_write=0 n_wr_bk=0 bw_util=0.1088
n_activity=9547 dram_eff=0.367
bk0: 144a 31864i bk1: 184a 31735i bk2: 84a 31993i bk3: 132a 31927i bk4: 112a 31933i bk5: 120a 31956i bk6: 120a 31907i bk7: 88a 32015i bk8: 112a 32005i bk9: 88a 31992i bk10: 116a 31970i bk11: 92a 31993i bk12: 92a 31997i bk13: 124a 31911i bk14: 60a 32060i bk15: 84a 31995i 

------------------------------------------------------------------------

Row_Buffer_Locality = 0.988584
Row_Buffer_Locality_read = 0.988584
Row_Buffer_Locality_write = -nan
Bank_Level_Parallism = 1.158946
Bank_Level_Parallism_Col = 1.142159
Bank_Level_Parallism_Ready = 1.019977
write_to_read_ratio_blp_rw_average = 0.000000
GrpLevelPara = 1.142159 

BW Util details:
bwutil = 0.108752 
total_CMD = 32220 
util_bw = 3504 
Wasted_Col = 2094 
Wasted_Row = 205 
Idle = 26417 

BW Util Bottlenecks: 
RCDc_limit = 497 
RCDWRc_limit = 0 
WTRc_limit = 0 
RTWc_limit = 0 
CCDLc_limit = 1683 
rwq = 0 
CCDLc_limit_alone = 1683 
WTRc_limit_alone = 0 
RTWc_limit_alone = 0 

Commands details: 
total_CMD = 32220 
n_nop = 30412 
Read = 1752 
Write = 0 
L2_Alloc = 0 
L2_WB = 0 
n_act = 36 
n_pre = 20 
n_ref = 0 
n_req = 1752 
total_req = 1752 

Dual Bus Interface Util: 
issued_total_row = 56 
issued_total_col = 1752 
Row_Bus_Util =  0.001738 
CoL_Bus_Util = 0.054376 
Either_Row_CoL_Bus_Util = 0.056114 
Issued_on_Two_Bus_Simul_Util = 0.000000 
issued_two_Eff = 0.000000 
queue_avg = 0.303880 


dram_util_bins: 0 0 0 0 0 0 0 0 0 0
dram_eff_bins: 0 0 0 0 0 0 0 0 0 0
mrqq: max=30 avg=0.30388
Memory Partition 1: 
Cache L2_bank_002:
MSHR contents

Cache L2_bank_003:
MSHR contents

In Dram Latency Queue (total = 0): 
DRAM[1]: 16 bks, busW=4 BL=8 CL=16, tRRD=8 tCCD=2, tRCD=16 tRAS=37 tRP=16 tRC=52
n_cmd=32220 n_nop=30262 n_act=36 n_pre=20 n_ref_event=0 n_req=1902 n_rd=1902 n_rd_L2_A=0 n_write=0 n_wr_bk=0 bw_util=0.1181
n_activity=10284 dram_eff=0.3699
bk0: 146a 31909i bk1: 156a 31792i bk2: 100a 31938i bk3: 156a 31849i bk4: 160a 31867i bk5: 116a 31955i bk6: 80a 32021i bk7: 100a 31970i bk8: 96a 32009i bk9: 116a 31965i bk10: 104a 31996i bk11: 84a 32033i bk12: 108a 31970i bk13: 120a 31948i bk14: 152a 31880i bk15: 108a 31970i 

------------------------------------------------------------------------

Row_Buffer_Locality = 0.989485
Row_Buffer_Locality_read = 0.989485
Row_Buffer_Locality_write = -nan
Bank_Level_Parallism = 1.168333
Bank_Level_Parallism_Col = 1.149130
Bank_Level_Parallism_Ready = 1.019979
write_to_read_ratio_blp_rw_average = 0.000000
GrpLevelPara = 1.149130 

BW Util details:
bwutil = 0.118063 
total_CMD = 32220 
util_bw = 3804 
Wasted_Col = 2141 
Wasted_Row = 197 
Idle = 26078 

BW Util Bottlenecks: 
RCDc_limit = 444 
RCDWRc_limit = 0 
WTRc_limit = 0 
RTWc_limit = 0 
CCDLc_limit = 1796 
rwq = 0 
CCDLc_limit_alone = 1796 
WTRc_limit_alone = 0 
RTWc_limit_alone = 0 

Commands details: 
total_CMD = 32220 
n_nop = 30262 
Read = 1902 
Write = 0 
L2_Alloc = 0 
L2_WB = 0 
n_act = 36 
n_pre = 20 
n_ref = 0 
n_req = 1902 
total_req = 1902 

Dual Bus Interface Util: 
issued_total_row = 56 
issued_total_col = 1902 
Row_Bus_Util =  0.001738 
CoL_Bus_Util = 0.059032 
Either_Row_CoL_Bus_Util = 0.060770 
Issued_on_Two_Bus_Simul_Util = 0.000000 
issued_two_Eff = 0.000000 
queue_avg = 0.195872 


dram_util_bins: 0 0 0 0 0 0 0 0 0 0
dram_eff_bins: 0 0 0 0 0 0 0 0 0 0
mrqq: max=19 avg=0.195872
Memory Partition 2: 
Cache L2_bank_004:
MSHR contents

Cache L2_bank_005:
MSHR contents

In Dram Latency Queue (total = 0): 
DRAM[2]: 16 bks, busW=4 BL=8 CL=16, tRRD=8 tCCD=2, tRCD=16 tRAS=37 tRP=16 tRC=52
n_cmd=32220 n_nop=30344 n_act=36 n_pre=20 n_ref_event=0 n_req=1820 n_rd=1820 n_rd_L2_A=0 n_write=0 n_wr_bk=0 bw_util=0.113
n_activity=9746 dram_eff=0.3735
bk0: 184a 31747i bk1: 124a 31899i bk2: 96a 31989i bk3: 108a 31964i bk4: 100a 32021i bk5: 140a 31826i bk6: 112a 31943i bk7: 132a 31910i bk8: 104a 31997i bk9: 72a 32059i bk10: 116a 31967i bk11: 108a 31963i bk12: 108a 31988i bk13: 48a 32073i bk14: 152a 31880i bk15: 116a 31955i 

------------------------------------------------------------------------

Row_Buffer_Locality = 0.989011
Row_Buffer_Locality_read = 0.989011
Row_Buffer_Locality_write = -nan
Bank_Level_Parallism = 1.175961
Bank_Level_Parallism_Col = 1.164470
Bank_Level_Parallism_Ready = 1.036793
write_to_read_ratio_blp_rw_average = 0.000000
GrpLevelPara = 1.164470 

BW Util details:
bwutil = 0.112973 
total_CMD = 32220 
util_bw = 3640 
Wasted_Col = 2006 
Wasted_Row = 232 
Idle = 26342 

BW Util Bottlenecks: 
RCDc_limit = 466 
RCDWRc_limit = 0 
WTRc_limit = 0 
RTWc_limit = 0 
CCDLc_limit = 1631 
rwq = 0 
CCDLc_limit_alone = 1631 
WTRc_limit_alone = 0 
RTWc_limit_alone = 0 

Commands details: 
total_CMD = 32220 
n_nop = 30344 
Read = 1820 
Write = 0 
L2_Alloc = 0 
L2_WB = 0 
n_act = 36 
n_pre = 20 
n_ref = 0 
n_req = 1820 
total_req = 1820 

Dual Bus Interface Util: 
issued_total_row = 56 
issued_total_col = 1820 
Row_Bus_Util =  0.001738 
CoL_Bus_Util = 0.056487 
Either_Row_CoL_Bus_Util = 0.058225 
Issued_on_Two_Bus_Simul_Util = 0.000000 
issued_two_Eff = 0.000000 
queue_avg = 0.218374 


dram_util_bins: 0 0 0 0 0 0 0 0 0 0
dram_eff_bins: 0 0 0 0 0 0 0 0 0 0
mrqq: max=13 avg=0.218374
Memory Partition 3: 
Cache L2_bank_006:
MSHR contents

Cache L2_bank_007:
MSHR contents

In Dram Latency Queue (total = 0): 
DRAM[3]: 16 bks, busW=4 BL=8 CL=16, tRRD=8 tCCD=2, tRCD=16 tRAS=37 tRP=16 tRC=52
n_cmd=32220 n_nop=30193 n_act=36 n_pre=20 n_ref_event=0 n_req=1972 n_rd=1972 n_rd_L2_A=0 n_write=0 n_wr_bk=0 bw_util=0.1224
n_activity=10515 dram_eff=0.3751
bk0: 164a 31843i bk1: 116a 31924i bk2: 132a 31904i bk3: 136a 31837i bk4: 108a 31978i bk5: 96a 32001i bk6: 92a 32029i bk7: 132a 31928i bk8: 120a 31940i bk9: 148a 31833i bk10: 92a 32021i bk11: 144a 31916i bk12: 116a 31961i bk13: 108a 31977i bk14: 128a 31943i bk15: 140a 31894i 

------------------------------------------------------------------------

Row_Buffer_Locality = 0.989858
Row_Buffer_Locality_read = 0.989858
Row_Buffer_Locality_write = -nan
Bank_Level_Parallism = 1.150830
Bank_Level_Parallism_Col = 1.133948
Bank_Level_Parallism_Ready = 1.020791
write_to_read_ratio_blp_rw_average = 0.000000
GrpLevelPara = 1.133948 

BW Util details:
bwutil = 0.122408 
total_CMD = 32220 
util_bw = 3944 
Wasted_Col = 2235 
Wasted_Row = 205 
Idle = 25836 

BW Util Bottlenecks: 
RCDc_limit = 475 
RCDWRc_limit = 0 
WTRc_limit = 0 
RTWc_limit = 0 
CCDLc_limit = 1841 
rwq = 0 
CCDLc_limit_alone = 1841 
WTRc_limit_alone = 0 
RTWc_limit_alone = 0 

Commands details: 
total_CMD = 32220 
n_nop = 30193 
Read = 1972 
Write = 0 
L2_Alloc = 0 
L2_WB = 0 
n_act = 36 
n_pre = 20 
n_ref = 0 
n_req = 1972 
total_req = 1972 

Dual Bus Interface Util: 
issued_total_row = 56 
issued_total_col = 1972 
Row_Bus_Util =  0.001738 
CoL_Bus_Util = 0.061204 
Either_Row_CoL_Bus_Util = 0.062911 
Issued_on_Two_Bus_Simul_Util = 0.000031 
issued_two_Eff = 0.000493 
queue_avg = 0.207076 


dram_util_bins: 0 0 0 0 0 0 0 0 0 0
dram_eff_bins: 0 0 0 0 0 0 0 0 0 0
mrqq: max=11 avg=0.207076
Memory Partition 4: 
Cache L2_bank_008:
MSHR contents

Cache L2_bank_009:
MSHR contents

In Dram Latency Queue (total = 0): 
DRAM[4]: 16 bks, busW=4 BL=8 CL=16, tRRD=8 tCCD=2, tRCD=16 tRAS=37 tRP=16 tRC=52
n_cmd=32220 n_nop=30012 n_act=36 n_pre=20 n_ref_event=0 n_req=2152 n_rd=2152 n_rd_L2_A=0 n_write=0 n_wr_bk=0 bw_util=0.1336
n_activity=10969 dram_eff=0.3924
bk0: 196a 31690i bk1: 196a 31672i bk2: 108a 31906i bk3: 152a 31852i bk4: 120a 31953i bk5: 116a 31959i bk6: 112a 31987i bk7: 92a 32007i bk8: 124a 31966i bk9: 136a 31928i bk10: 132a 31920i bk11: 152a 31890i bk12: 132a 31935i bk13: 148a 31935i bk14: 132a 31935i bk15: 104a 31998i 

------------------------------------------------------------------------

Row_Buffer_Locality = 0.990706
Row_Buffer_Locality_read = 0.990706
Row_Buffer_Locality_write = -nan
Bank_Level_Parallism = 1.194781
Bank_Level_Parallism_Col = 1.188626
Bank_Level_Parallism_Ready = 1.030655
write_to_read_ratio_blp_rw_average = 0.000000
GrpLevelPara = 1.188626 

BW Util details:
bwutil = 0.133582 
total_CMD = 32220 
util_bw = 4304 
Wasted_Col = 2189 
Wasted_Row = 242 
Idle = 25485 

BW Util Bottlenecks: 
RCDc_limit = 453 
RCDWRc_limit = 0 
WTRc_limit = 0 
RTWc_limit = 0 
CCDLc_limit = 1799 
rwq = 0 
CCDLc_limit_alone = 1799 
WTRc_limit_alone = 0 
RTWc_limit_alone = 0 

Commands details: 
total_CMD = 32220 
n_nop = 30012 
Read = 2152 
Write = 0 
L2_Alloc = 0 
L2_WB = 0 
n_act = 36 
n_pre = 20 
n_ref = 0 
n_req = 2152 
total_req = 2152 

Dual Bus Interface Util: 
issued_total_row = 56 
issued_total_col = 2152 
Row_Bus_Util =  0.001738 
CoL_Bus_Util = 0.066791 
Either_Row_CoL_Bus_Util = 0.068529 
Issued_on_Two_Bus_Simul_Util = 0.000000 
issued_two_Eff = 0.000000 
queue_avg = 0.416170 


dram_util_bins: 0 0 0 0 0 0 0 0 0 0
dram_eff_bins: 0 0 0 0 0 0 0 0 0 0
mrqq: max=41 avg=0.41617
Memory Partition 5: 
Cache L2_bank_010:
MSHR contents

Cache L2_bank_011:
MSHR contents

In Dram Latency Queue (total = 0): 
DRAM[5]: 16 bks, busW=4 BL=8 CL=16, tRRD=8 tCCD=2, tRCD=16 tRAS=37 tRP=16 tRC=52
n_cmd=32220 n_nop=30344 n_act=36 n_pre=20 n_ref_event=0 n_req=1820 n_rd=1820 n_rd_L2_A=0 n_write=0 n_wr_bk=0 bw_util=0.113
n_activity=9849 dram_eff=0.3696
bk0: 148a 31824i bk1: 88a 32015i bk2: 120a 31916i bk3: 128a 31860i bk4: 124a 31915i bk5: 104a 31941i bk6: 120a 31922i bk7: 128a 31902i bk8: 96a 31993i bk9: 100a 31983i bk10: 108a 31977i bk11: 88a 32021i bk12: 112a 31978i bk13: 148a 31903i bk14: 84a 32014i bk15: 124a 31919i 

------------------------------------------------------------------------

Row_Buffer_Locality = 0.989011
Row_Buffer_Locality_read = 0.989011
Row_Buffer_Locality_write = -nan
Bank_Level_Parallism = 1.155605
Bank_Level_Parallism_Col = 1.147451
Bank_Level_Parallism_Ready = 1.030220
write_to_read_ratio_blp_rw_average = 0.000000
GrpLevelPara = 1.147451 

BW Util details:
bwutil = 0.112973 
total_CMD = 32220 
util_bw = 3640 
Wasted_Col = 2175 
Wasted_Row = 245 
Idle = 26160 

BW Util Bottlenecks: 
RCDc_limit = 486 
RCDWRc_limit = 0 
WTRc_limit = 0 
RTWc_limit = 0 
CCDLc_limit = 1767 
rwq = 0 
CCDLc_limit_alone = 1767 
WTRc_limit_alone = 0 
RTWc_limit_alone = 0 

Commands details: 
total_CMD = 32220 
n_nop = 30344 
Read = 1820 
Write = 0 
L2_Alloc = 0 
L2_WB = 0 
n_act = 36 
n_pre = 20 
n_ref = 0 
n_req = 1820 
total_req = 1820 

Dual Bus Interface Util: 
issued_total_row = 56 
issued_total_col = 1820 
Row_Bus_Util =  0.001738 
CoL_Bus_Util = 0.056487 
Either_Row_CoL_Bus_Util = 0.058225 
Issued_on_Two_Bus_Simul_Util = 0.000000 
issued_two_Eff = 0.000000 
queue_avg = 0.242582 


dram_util_bins: 0 0 0 0 0 0 0 0 0 0
dram_eff_bins: 0 0 0 0 0 0 0 0 0 0
mrqq: max=14 avg=0.242582
Memory Partition 6: 
Cache L2_bank_012:
MSHR contents

Cache L2_bank_013:
MSHR contents

In Dram Latency Queue (total = 0): 
DRAM[6]: 16 bks, busW=4 BL=8 CL=16, tRRD=8 tCCD=2, tRCD=16 tRAS=37 tRP=16 tRC=52
n_cmd=32220 n_nop=30400 n_act=36 n_pre=20 n_ref_event=0 n_req=1764 n_rd=1764 n_rd_L2_A=0 n_write=0 n_wr_bk=0 bw_util=0.1095
n_activity=9556 dram_eff=0.3692
bk0: 136a 31832i bk1: 120a 31911i bk2: 116a 31941i bk3: 132a 31851i bk4: 100a 31948i bk5: 124a 31914i bk6: 100a 31962i bk7: 136a 31896i bk8: 84a 32002i bk9: 92a 31969i bk10: 100a 31995i bk11: 104a 31973i bk12: 84a 32014i bk13: 112a 31945i bk14: 96a 32016i bk15: 128a 31972i 

------------------------------------------------------------------------

Row_Buffer_Locality = 0.988662
Row_Buffer_Locality_read = 0.988662
Row_Buffer_Locality_write = -nan
Bank_Level_Parallism = 1.213262
Bank_Level_Parallism_Col = 1.197784
Bank_Level_Parallism_Ready = 1.060023
write_to_read_ratio_blp_rw_average = 0.000000
GrpLevelPara = 1.197784 

BW Util details:
bwutil = 0.109497 
total_CMD = 32220 
util_bw = 3528 
Wasted_Col = 1951 
Wasted_Row = 198 
Idle = 26543 

BW Util Bottlenecks: 
RCDc_limit = 417 
RCDWRc_limit = 0 
WTRc_limit = 0 
RTWc_limit = 0 
CCDLc_limit = 1600 
rwq = 0 
CCDLc_limit_alone = 1600 
WTRc_limit_alone = 0 
RTWc_limit_alone = 0 

Commands details: 
total_CMD = 32220 
n_nop = 30400 
Read = 1764 
Write = 0 
L2_Alloc = 0 
L2_WB = 0 
n_act = 36 
n_pre = 20 
n_ref = 0 
n_req = 1764 
total_req = 1764 

Dual Bus Interface Util: 
issued_total_row = 56 
issued_total_col = 1764 
Row_Bus_Util =  0.001738 
CoL_Bus_Util = 0.054749 
Either_Row_CoL_Bus_Util = 0.056487 
Issued_on_Two_Bus_Simul_Util = 0.000000 
issued_two_Eff = 0.000000 
queue_avg = 0.229392 


dram_util_bins: 0 0 0 0 0 0 0 0 0 0
dram_eff_bins: 0 0 0 0 0 0 0 0 0 0
mrqq: max=12 avg=0.229392
Memory Partition 7: 
Cache L2_bank_014:
MSHR contents

Cache L2_bank_015:
MSHR contents

In Dram Latency Queue (total = 0): 
DRAM[7]: 16 bks, busW=4 BL=8 CL=16, tRRD=8 tCCD=2, tRCD=16 tRAS=37 tRP=16 tRC=52
n_cmd=32220 n_nop=30288 n_act=36 n_pre=20 n_ref_event=0 n_req=1876 n_rd=1876 n_rd_L2_A=0 n_write=0 n_wr_bk=0 bw_util=0.1164
n_activity=10340 dram_eff=0.3629
bk0: 152a 31838i bk1: 168a 31802i bk2: 128a 31881i bk3: 88a 31978i bk4: 124a 31916i bk5: 100a 32014i bk6: 112a 31963i bk7: 128a 31921i bk8: 84a 32033i bk9: 92a 31996i bk10: 136a 31936i bk11: 96a 31986i bk12: 88a 32033i bk13: 120a 31964i bk14: 120a 31929i bk15: 140a 31904i 

------------------------------------------------------------------------

Row_Buffer_Locality = 0.989339
Row_Buffer_Locality_read = 0.989339
Row_Buffer_Locality_write = -nan
Bank_Level_Parallism = 1.131260
Bank_Level_Parallism_Col = 1.123855
Bank_Level_Parallism_Ready = 1.014392
write_to_read_ratio_blp_rw_average = 0.000000
GrpLevelPara = 1.123855 

BW Util details:
bwutil = 0.116449 
total_CMD = 32220 
util_bw = 3752 
Wasted_Col = 2239 
Wasted_Row = 252 
Idle = 25977 

BW Util Bottlenecks: 
RCDc_limit = 494 
RCDWRc_limit = 0 
WTRc_limit = 0 
RTWc_limit = 0 
CCDLc_limit = 1812 
rwq = 0 
CCDLc_limit_alone = 1812 
WTRc_limit_alone = 0 
RTWc_limit_alone = 0 

Commands details: 
total_CMD = 32220 
n_nop = 30288 
Read = 1876 
Write = 0 
L2_Alloc = 0 
L2_WB = 0 
n_act = 36 
n_pre = 20 
n_ref = 0 
n_req = 1876 
total_req = 1876 

Dual Bus Interface Util: 
issued_total_row = 56 
issued_total_col = 1876 
Row_Bus_Util =  0.001738 
CoL_Bus_Util = 0.058225 
Either_Row_CoL_Bus_Util = 0.059963 
Issued_on_Two_Bus_Simul_Util = 0.000000 
issued_two_Eff = 0.000000 
queue_avg = 0.199038 


dram_util_bins: 0 0 0 0 0 0 0 0 0 0
dram_eff_bins: 0 0 0 0 0 0 0 0 0 0
mrqq: max=12 avg=0.199038
Memory Partition 8: 
Cache L2_bank_016:
MSHR contents

Cache L2_bank_017:
MSHR contents

In Dram Latency Queue (total = 0): 
DRAM[8]: 16 bks, busW=4 BL=8 CL=16, tRRD=8 tCCD=2, tRCD=16 tRAS=37 tRP=16 tRC=52
n_cmd=32220 n_nop=30168 n_act=36 n_pre=20 n_ref_event=0 n_req=1996 n_rd=1996 n_rd_L2_A=0 n_write=0 n_wr_bk=0 bw_util=0.1239
n_activity=10228 dram_eff=0.3903
bk0: 144a 31883i bk1: 192a 31686i bk2: 132a 31849i bk3: 104a 31943i bk4: 120a 31935i bk5: 124a 31834i bk6: 116a 31945i bk7: 152a 31833i bk8: 140a 31883i bk9: 120a 31895i bk10: 96a 31979i bk11: 72a 32047i bk12: 140a 31888i bk13: 124a 31929i bk14: 120a 31976i bk15: 100a 32019i 

------------------------------------------------------------------------

Row_Buffer_Locality = 0.989980
Row_Buffer_Locality_read = 0.989980
Row_Buffer_Locality_write = -nan
Bank_Level_Parallism = 1.218602
Bank_Level_Parallism_Col = 1.206367
Bank_Level_Parallism_Ready = 1.055556
write_to_read_ratio_blp_rw_average = 0.000000
GrpLevelPara = 1.206367 

BW Util details:
bwutil = 0.123898 
total_CMD = 32220 
util_bw = 3992 
Wasted_Col = 2190 
Wasted_Row = 207 
Idle = 25831 

BW Util Bottlenecks: 
RCDc_limit = 460 
RCDWRc_limit = 0 
WTRc_limit = 0 
RTWc_limit = 0 
CCDLc_limit = 1798 
rwq = 0 
CCDLc_limit_alone = 1798 
WTRc_limit_alone = 0 
RTWc_limit_alone = 0 

Commands details: 
total_CMD = 32220 
n_nop = 30168 
Read = 1996 
Write = 0 
L2_Alloc = 0 
L2_WB = 0 
n_act = 36 
n_pre = 20 
n_ref = 0 
n_req = 1996 
total_req = 1996 

Dual Bus Interface Util: 
issued_total_row = 56 
issued_total_col = 1996 
Row_Bus_Util =  0.001738 
CoL_Bus_Util = 0.061949 
Either_Row_CoL_Bus_Util = 0.063687 
Issued_on_Two_Bus_Simul_Util = 0.000000 
issued_two_Eff = 0.000000 
queue_avg = 0.319646 


dram_util_bins: 0 0 0 0 0 0 0 0 0 0
dram_eff_bins: 0 0 0 0 0 0 0 0 0 0
mrqq: max=17 avg=0.319646
Memory Partition 9: 
Cache L2_bank_018:
MSHR contents

Cache L2_bank_019:
MSHR contents

In Dram Latency Queue (total = 0): 
DRAM[9]: 16 bks, busW=4 BL=8 CL=16, tRRD=8 tCCD=2, tRCD=16 tRAS=37 tRP=16 tRC=52
n_cmd=32220 n_nop=30288 n_act=36 n_pre=20 n_ref_event=0 n_req=1876 n_rd=1876 n_rd_L2_A=0 n_write=0 n_wr_bk=0 bw_util=0.1164
n_activity=10534 dram_eff=0.3562
bk0: 124a 31879i bk1: 144a 31909i bk2: 152a 31843i bk3: 120a 31927i bk4: 128a 31909i bk5: 124a 31906i bk6: 172a 31824i bk7: 84a 32036i bk8: 96a 32012i bk9: 72a 32054i bk10: 100a 31998i bk11: 124a 31935i bk12: 128a 31951i bk13: 116a 31931i bk14: 108a 32009i bk15: 84a 32011i 

------------------------------------------------------------------------

Row_Buffer_Locality = 0.989339
Row_Buffer_Locality_read = 0.989339
Row_Buffer_Locality_write = -nan
Bank_Level_Parallism = 1.142857
Bank_Level_Parallism_Col = 1.128304
Bank_Level_Parallism_Ready = 1.028237
write_to_read_ratio_blp_rw_average = 0.000000
GrpLevelPara = 1.128304 

BW Util details:
bwutil = 0.116449 
total_CMD = 32220 
util_bw = 3752 
Wasted_Col = 2216 
Wasted_Row = 228 
Idle = 26024 

BW Util Bottlenecks: 
RCDc_limit = 483 
RCDWRc_limit = 0 
WTRc_limit = 0 
RTWc_limit = 0 
CCDLc_limit = 1824 
rwq = 0 
CCDLc_limit_alone = 1824 
WTRc_limit_alone = 0 
RTWc_limit_alone = 0 

Commands details: 
total_CMD = 32220 
n_nop = 30288 
Read = 1876 
Write = 0 
L2_Alloc = 0 
L2_WB = 0 
n_act = 36 
n_pre = 20 
n_ref = 0 
n_req = 1876 
total_req = 1876 

Dual Bus Interface Util: 
issued_total_row = 56 
issued_total_col = 1876 
Row_Bus_Util =  0.001738 
CoL_Bus_Util = 0.058225 
Either_Row_CoL_Bus_Util = 0.059963 
Issued_on_Two_Bus_Simul_Util = 0.000000 
issued_two_Eff = 0.000000 
queue_avg = 0.172253 


dram_util_bins: 0 0 0 0 0 0 0 0 0 0
dram_eff_bins: 0 0 0 0 0 0 0 0 0 0
mrqq: max=10 avg=0.172253
Memory Partition 10: 
Cache L2_bank_020:
MSHR contents

Cache L2_bank_021:
MSHR contents

In Dram Latency Queue (total = 0): 
DRAM[10]: 16 bks, busW=4 BL=8 CL=16, tRRD=8 tCCD=2, tRCD=16 tRAS=37 tRP=16 tRC=52
n_cmd=32220 n_nop=30196 n_act=36 n_pre=20 n_ref_event=0 n_req=1968 n_rd=1968 n_rd_L2_A=0 n_write=0 n_wr_bk=0 bw_util=0.1222
n_activity=10583 dram_eff=0.3719
bk0: 160a 31778i bk1: 152a 31862i bk2: 148a 31887i bk3: 140a 31854i bk4: 108a 31926i bk5: 84a 31964i bk6: 112a 31969i bk7: 92a 31992i bk8: 112a 31950i bk9: 116a 31945i bk10: 100a 32040i bk11: 104a 31994i bk12: 116a 31973i bk13: 128a 31935i bk14: 156a 31877i bk15: 140a 31884i 

------------------------------------------------------------------------

Row_Buffer_Locality = 0.989837
Row_Buffer_Locality_read = 0.989837
Row_Buffer_Locality_write = -nan
Bank_Level_Parallism = 1.176293
Bank_Level_Parallism_Col = 1.163809
Bank_Level_Parallism_Ready = 1.044207
write_to_read_ratio_blp_rw_average = 0.000000
GrpLevelPara = 1.163809 

BW Util details:
bwutil = 0.122160 
total_CMD = 32220 
util_bw = 3936 
Wasted_Col = 2216 
Wasted_Row = 218 
Idle = 25850 

BW Util Bottlenecks: 
RCDc_limit = 475 
RCDWRc_limit = 0 
WTRc_limit = 0 
RTWc_limit = 0 
CCDLc_limit = 1805 
rwq = 0 
CCDLc_limit_alone = 1805 
WTRc_limit_alone = 0 
RTWc_limit_alone = 0 

Commands details: 
total_CMD = 32220 
n_nop = 30196 
Read = 1968 
Write = 0 
L2_Alloc = 0 
L2_WB = 0 
n_act = 36 
n_pre = 20 
n_ref = 0 
n_req = 1968 
total_req = 1968 

Dual Bus Interface Util: 
issued_total_row = 56 
issued_total_col = 1968 
Row_Bus_Util =  0.001738 
CoL_Bus_Util = 0.061080 
Either_Row_CoL_Bus_Util = 0.062818 
Issued_on_Two_Bus_Simul_Util = 0.000000 
issued_two_Eff = 0.000000 
queue_avg = 0.310273 


dram_util_bins: 0 0 0 0 0 0 0 0 0 0
dram_eff_bins: 0 0 0 0 0 0 0 0 0 0
mrqq: max=21 avg=0.310273
Memory Partition 11: 
Cache L2_bank_022:
MSHR contents

Cache L2_bank_023:
MSHR contents

In Dram Latency Queue (total = 0): 
DRAM[11]: 16 bks, busW=4 BL=8 CL=16, tRRD=8 tCCD=2, tRCD=16 tRAS=37 tRP=16 tRC=52
n_cmd=32220 n_nop=30421 n_act=36 n_pre=20 n_ref_event=0 n_req=1744 n_rd=1744 n_rd_L2_A=0 n_write=0 n_wr_bk=0 bw_util=0.1083
n_activity=9677 dram_eff=0.3604
bk0: 128a 31920i bk1: 124a 31921i bk2: 128a 31948i bk3: 120a 31912i bk4: 96a 31961i bk5: 128a 31862i bk6: 92a 32020i bk7: 92a 31998i bk8: 100a 32008i bk9: 108a 31976i bk10: 104a 31973i bk11: 100a 32014i bk12: 136a 31957i bk13: 104a 31980i bk14: 88a 32018i bk15: 96a 31977i 

------------------------------------------------------------------------

Row_Buffer_Locality = 0.988532
Row_Buffer_Locality_read = 0.988532
Row_Buffer_Locality_write = -nan
Bank_Level_Parallism = 1.150448
Bank_Level_Parallism_Col = 1.140270
[...]
n_cmd=163171 n_nop=154259 n_act=172 n_pre=156 n_ref_event=0 n_req=8584 n_rd=8584 n_rd_L2_A=0 n_write=0 n_wr_bk=0 bw_util=0.1052
n_activity=47146 dram_eff=0.3641
bk0: 574a 161671i bk1: 498a 161836i bk2: 539a 161812i bk3: 529a 161771i bk4: 604a 161597i bk5: 564a 161622i bk6: 548a 161783i bk7: 512a 161711i bk8: 484a 161985i bk9: 596a 161553i bk10: 456a 162050i bk11: 500a 161852i bk12: 572a 161770i bk13: 484a 162009i bk14: 544a 161827i bk15: 580a 161894i 

------------------------------------------------------------------------

Row_Buffer_Locality = 0.981827
Row_Buffer_Locality_read = 0.981827
Row_Buffer_Locality_write = -nan
Bank_Level_Parallism = 1.176119
Bank_Level_Parallism_Col = 1.156841
Bank_Level_Parallism_Ready = 1.044116
write_to_read_ratio_blp_rw_average = 0.000000
GrpLevelPara = 1.156589 

BW Util details:
bwutil = 0.105215 
total_CMD = 163171 
util_bw = 17168 
Wasted_Col = 9997 
Wasted_Row = 1720 
Idle = 134286 

BW Util Bottlenecks: 
RCDc_limit = 2225 
RCDWRc_limit = 0 
WTRc_limit = 0 
RTWc_limit = 0 
CCDLc_limit = 8081 
rwq = 0 
CCDLc_limit_alone = 8081 
WTRc_limit_alone = 0 
RTWc_limit_alone = 0 

Commands details: 
total_CMD = 163171 
n_nop = 154259 
Read = 8584 
Write = 0 
L2_Alloc = 0 
L2_WB = 0 
n_act = 172 
n_pre = 156 
n_ref = 0 
n_req = 8584 
total_req = 8584 

Dual Bus Interface Util: 
issued_total_row = 328 
issued_total_col = 8584 
Row_Bus_Util =  0.002010 
CoL_Bus_Util = 0.052607 
Either_Row_CoL_Bus_Util = 0.054618 
Issued_on_Two_Bus_Simul_Util = 0.000000 
issued_two_Eff = 0.000000 
queue_avg = 0.239375 


dram_util_bins: 0 0 0 0 0 0 0 0 0 0
dram_eff_bins: 0 0 0 0 0 0 0 0 0 0
mrqq: max=25 avg=0.239375
Memory Partition 7: 
Cache L2_bank_014:
MSHR contents

Cache L2_bank_015:
MSHR contents

In Dram Latency Queue (total = 0): 
DRAM[7]: 16 bks, busW=4 BL=8 CL=16, tRRD=8 tCCD=2, tRCD=16 tRAS=37 tRP=16 tRC=52
n_cmd=163171 n_nop=153387 n_act=171 n_pre=155 n_ref_event=0 n_req=9458 n_rd=9458 n_rd_L2_A=0 n_write=0 n_wr_bk=0 bw_util=0.1159
n_activity=50082 dram_eff=0.3777
bk0: 666a 161504i bk1: 593a 161604i bk2: 580a 161691i bk3: 559a 161784i bk4: 608a 161676i bk5: 576a 161693i bk6: 576a 161695i bk7: 576a 161645i bk8: 508a 161896i bk9: 588a 161700i bk10: 584a 161821i bk11: 596a 161663i bk12: 560a 161766i bk13: 656a 161592i bk14: 684a 161467i bk15: 548a 161803i 

------------------------------------------------------------------------

Row_Buffer_Locality = 0.983612
Row_Buffer_Locality_read = 0.983612
Row_Buffer_Locality_write = -nan
Bank_Level_Parallism = 1.187804
Bank_Level_Parallism_Col = 1.167426
Bank_Level_Parallism_Ready = 1.039941
write_to_read_ratio_blp_rw_average = 0.000000
GrpLevelPara = 1.166847 

BW Util details:
bwutil = 0.115927 
total_CMD = 163171 
util_bw = 18916 
Wasted_Col = 10552 
Wasted_Row = 1653 
Idle = 132050 

BW Util Bottlenecks: 
RCDc_limit = 2279 
RCDWRc_limit = 0 
WTRc_limit = 0 
RTWc_limit = 0 
CCDLc_limit = 8615 
rwq = 0 
CCDLc_limit_alone = 8615 
WTRc_limit_alone = 0 
RTWc_limit_alone = 0 

Commands details: 
total_CMD = 163171 
n_nop = 153387 
Read = 9458 
Write = 0 
L2_Alloc = 0 
L2_WB = 0 
n_act = 171 
n_pre = 155 
n_ref = 0 
n_req = 9458 
total_req = 9458 

Dual Bus Interface Util: 
issued_total_row = 326 
issued_total_col = 9458 
Row_Bus_Util =  0.001998 
CoL_Bus_Util = 0.057964 
Either_Row_CoL_Bus_Util = 0.059962 
Issued_on_Two_Bus_Simul_Util = 0.000000 
issued_two_Eff = 0.000000 
queue_avg = 0.231218 


dram_util_bins: 0 0 0 0 0 0 0 0 0 0
dram_eff_bins: 0 0 0 0 0 0 0 0 0 0
mrqq: max=21 avg=0.231218
Memory Partition 8: 
Cache L2_bank_016:
MSHR contents

Cache L2_bank_017:
MSHR contents

In Dram Latency Queue (total = 0): 
DRAM[8]: 16 bks, busW=4 BL=8 CL=16, tRRD=8 tCCD=2, tRCD=16 tRAS=37 tRP=16 tRC=52
n_cmd=163171 n_nop=153496 n_act=176 n_pre=160 n_ref_event=0 n_req=9328 n_rd=9324 n_rd_L2_A=0 n_write=0 n_wr_bk=16 bw_util=0.1145
n_activity=49192 dram_eff=0.3797
bk0: 591a 161485i bk1: 655a 161353i bk2: 623a 161543i bk3: 563a 161746i bk4: 624a 161462i bk5: 524a 161701i bk6: 568a 161754i bk7: 628a 161425i bk8: 588a 161733i bk9: 552a 161754i bk10: 580a 161571i bk11: 468a 162015i bk12: 568a 161773i bk13: 568a 161778i bk14: 676a 161642i bk15: 548a 161909i 

------------------------------------------------------------------------

Row_Buffer_Locality = 0.982847
Row_Buffer_Locality_read = 0.983054
Row_Buffer_Locality_write = 0.500000
Bank_Level_Parallism = 1.212027
Bank_Level_Parallism_Col = 1.190127
Bank_Level_Parallism_Ready = 1.052316
write_to_read_ratio_blp_rw_average = 0.003820
GrpLevelPara = 1.188129 

BW Util details:
bwutil = 0.114481 
total_CMD = 163171 
util_bw = 18680 
Wasted_Col = 10350 
Wasted_Row = 1665 
Idle = 132476 

BW Util Bottlenecks: 
RCDc_limit = 2259 
RCDWRc_limit = 14 
WTRc_limit = 17 
RTWc_limit = 32 
CCDLc_limit = 8433 
rwq = 0 
CCDLc_limit_alone = 8433 
WTRc_limit_alone = 17 
RTWc_limit_alone = 32 

Commands details: 
total_CMD = 163171 
n_nop = 153496 
Read = 9324 
Write = 0 
L2_Alloc = 0 
L2_WB = 16 
n_act = 176 
n_pre = 160 
n_ref = 0 
n_req = 9328 
total_req = 9340 

Dual Bus Interface Util: 
issued_total_row = 336 
issued_total_col = 9340 
Row_Bus_Util =  0.002059 
CoL_Bus_Util = 0.057241 
Either_Row_CoL_Bus_Util = 0.059294 
Issued_on_Two_Bus_Simul_Util = 0.000006 
issued_two_Eff = 0.000103 
queue_avg = 0.261039 


dram_util_bins: 0 0 0 0 0 0 0 0 0 0
dram_eff_bins: 0 0 0 0 0 0 0 0 0 0
mrqq: max=18 avg=0.261039
Memory Partition 9: 
Cache L2_bank_018:
MSHR contents

Cache L2_bank_019:
MSHR contents

In Dram Latency Queue (total = 0): 
DRAM[9]: 16 bks, busW=4 BL=8 CL=16, tRRD=8 tCCD=2, tRCD=16 tRAS=37 tRP=16 tRC=52
n_cmd=163171 n_nop=153719 n_act=170 n_pre=154 n_ref_event=0 n_req=9128 n_rd=9128 n_rd_L2_A=0 n_write=0 n_wr_bk=0 bw_util=0.1119
n_activity=48142 dram_eff=0.3792
bk0: 545a 161753i bk1: 585a 161754i bk2: 553a 161798i bk3: 605a 161631i bk4: 624a 161581i bk5: 604a 161491i bk6: 596a 161662i bk7: 552a 161746i bk8: 512a 161839i bk9: 504a 161888i bk10: 564a 161778i bk11: 548a 161781i bk12: 652a 161708i bk13: 600a 161686i bk14: 580a 161801i bk15: 504a 161960i 

------------------------------------------------------------------------

Row_Buffer_Locality = 0.983129
Row_Buffer_Locality_read = 0.983129
Row_Buffer_Locality_write = -nan
Bank_Level_Parallism = 1.182814
Bank_Level_Parallism_Col = 1.159287
Bank_Level_Parallism_Ready = 1.037568
write_to_read_ratio_blp_rw_average = 0.000000
GrpLevelPara = 1.159127 

BW Util details:
bwutil = 0.111883 
total_CMD = 163171 
util_bw = 18256 
Wasted_Col = 10232 
Wasted_Row = 1593 
Idle = 133090 

BW Util Bottlenecks: 
RCDc_limit = 2224 
RCDWRc_limit = 0 
WTRc_limit = 0 
RTWc_limit = 0 
CCDLc_limit = 8409 
rwq = 0 
CCDLc_limit_alone = 8409 
WTRc_limit_alone = 0 
RTWc_limit_alone = 0 

Commands details: 
total_CMD = 163171 
n_nop = 153719 
Read = 9128 
Write = 0 
L2_Alloc = 0 
L2_WB = 0 
n_act = 170 
n_pre = 154 
n_ref = 0 
n_req = 9128 
total_req = 9128 

Dual Bus Interface Util: 
issued_total_row = 324 
issued_total_col = 9128 
Row_Bus_Util =  0.001986 
CoL_Bus_Util = 0.055941 
Either_Row_CoL_Bus_Util = 0.057927 
Issued_on_Two_Bus_Simul_Util = 0.000000 
issued_two_Eff = 0.000000 
queue_avg = 0.229122 


dram_util_bins: 0 0 0 0 0 0 0 0 0 0
dram_eff_bins: 0 0 0 0 0 0 0 0 0 0
mrqq: max=15 avg=0.229122
Memory Partition 10: 
Cache L2_bank_020:
MSHR contents

Cache L2_bank_021:
MSHR contents

In Dram Latency Queue (total = 0): 
DRAM[10]: 16 bks, busW=4 BL=8 CL=16, tRRD=8 tCCD=2, tRCD=16 tRAS=37 tRP=16 tRC=52
n_cmd=163171 n_nop=153470 n_act=173 n_pre=157 n_ref_event=0 n_req=9372 n_rd=9372 n_rd_L2_A=0 n_write=0 n_wr_bk=0 bw_util=0.1149
n_activity=49148 dram_eff=0.3814
bk0: 557a 161777i bk1: 633a 161580i bk2: 557a 161765i bk3: 617a 161582i bk4: 604a 161663i bk5: 552a 161655i bk6: 572a 161613i bk7: 584a 161640i bk8: 576a 161714i bk9: 572a 161712i bk10: 608a 161742i bk11: 576a 161732i bk12: 608a 161669i bk13: 604a 161687i bk14: 580a 161827i bk15: 572a 161716i 

------------------------------------------------------------------------

Row_Buffer_Locality = 0.983248
Row_Buffer_Locality_read = 0.983248
Row_Buffer_Locality_write = -nan
Bank_Level_Parallism = 1.196025
Bank_Level_Parallism_Col = 1.173825
Bank_Level_Parallism_Ready = 1.048208
write_to_read_ratio_blp_rw_average = 0.000000
GrpLevelPara = 1.173199 

BW Util details:
bwutil = 0.114873 
total_CMD = 163171 
util_bw = 18744 
Wasted_Col = 10351 
Wasted_Row = 1627 
Idle = 132449 

BW Util Bottlenecks: 
RCDc_limit = 2275 
RCDWRc_limit = 0 
WTRc_limit = 0 
RTWc_limit = 0 
CCDLc_limit = 8429 
rwq = 0 
CCDLc_limit_alone = 8429 
WTRc_limit_alone = 0 
RTWc_limit_alone = 0 

Commands details: 
total_CMD = 163171 
n_nop = 153470 
Read = 9372 
Write = 0 
L2_Alloc = 0 
L2_WB = 0 
n_act = 173 
n_pre = 157 
n_ref = 0 
n_req = 9372 
total_req = 9372 

Dual Bus Interface Util: 
issued_total_row = 330 
issued_total_col = 9372 
Row_Bus_Util =  0.002022 
CoL_Bus_Util = 0.057437 
Either_Row_CoL_Bus_Util = 0.059453 
Issued_on_Two_Bus_Simul_Util = 0.000006 
issued_two_Eff = 0.000103 
queue_avg = 0.271788 


dram_util_bins: 0 0 0 0 0 0 0 0 0 0
dram_eff_bins: 0 0 0 0 0 0 0 0 0 0
mrqq: max=21 avg=0.271788
Memory Partition 11: 
Cache L2_bank_022:
MSHR contents

Cache L2_bank_023:
MSHR contents

In Dram Latency Queue (total = 0): 
DRAM[11]: 16 bks, busW=4 BL=8 CL=16, tRRD=8 tCCD=2, tRCD=16 tRAS=37 tRP=16 tRC=52
n_cmd=163171 n_nop=154194 n_act=172 n_pre=156 n_ref_event=0 n_req=8650 n_rd=8650 n_rd_L2_A=0 n_write=0 n_wr_bk=0 bw_util=0.106
n_activity=47185 dram_eff=0.3666
bk0: 542a 161825i bk1: 615a 161667i bk2: 618a 161629i bk3: 617a 161631i bk4: 552a 161718i bk5: 598a 161547i bk6: 556a 161695i bk7: 492a 161850i bk8: 476a 161910i bk9: 524a 161800i bk10: 460a 161953i bk11: 520a 161899i bk12: 520a 161940i bk13: 556a 161800i bk14: 456a 162052i bk15: 548a 161885i 

------------------------------------------------------------------------

Row_Buffer_Locality = 0.981965
Row_Buffer_Locality_read = 0.981965
Row_Buffer_Locality_write = -nan
Bank_Level_Parallism = 1.184844
Bank_Level_Parallism_Col = 1.164741
Bank_Level_Parallism_Ready = 1.040555
write_to_read_ratio_blp_rw_average = 0.000000
GrpLevelPara = 1.164530 

BW Util details:
bwutil = 0.106024 
total_CMD = 163171 
util_bw = 17300 
Wasted_Col = 9774 
Wasted_Row = 1719 
Idle = 134378 

BW Util Bottlenecks: 
RCDc_limit = 2283 
RCDWRc_limit = 0 
WTRc_limit = 0 
RTWc_limit = 0 
CCDLc_limit = 7827 
rwq = 0 
CCDLc_limit_alone = 7827 
WTRc_limit_alone = 0 
RTWc_limit_alone = 0 

Commands details: 
total_CMD = 163171 
n_nop = 154194 
Read = 8650 
Write = 0 
L2_Alloc = 0 
L2_WB = 0 
n_act = 172 
n_pre = 156 
n_ref = 0 
n_req = 8650 
total_req = 8650 

Dual Bus Interface Util: 
issued_total_row = 328 
issued_total_col = 8650 
Row_Bus_Util =  0.002010 
CoL_Bus_Util = 0.053012 
Either_Row_CoL_Bus_Util = 0.055016 
Issued_on_Two_Bus_Simul_Util = 0.000006 
issued_two_Eff = 0.000111 
queue_avg = 0.212017 


dram_util_bins: 0 0 0 0 0 0 0 0 0 0
dram_eff_bins: 0 0 0 0 0 0 0 0 0 0
mrqq: max=21 avg=0.212017

========= L2 cache stats =========
L2_cache_bank[0]: Access = 7530, Miss = 4382, Miss_rate = 0.582, Pending_hits = 1506, Reservation_fails = 0
L2_cache_bank[1]: Access = 7538, Miss = 4250, Miss_rate = 0.564, Pending_hits = 1447, Reservation_fails = 0
L2_cache_bank[2]: Access = 7808, Miss = 4778, Miss_rate = 0.612, Pending_hits = 1602, Reservation_fails = 0
L2_cache_bank[3]: Access = 7349, Miss = 4402, Miss_rate = 0.599, Pending_hits = 1504, Reservation_fails = 0
L2_cache_bank[4]: Access = 7681, Miss = 4224, Miss_rate = 0.550, Pending_hits = 1486, Reservation_fails = 0
L2_cache_bank[5]: Access = 7752, Miss = 4596, Miss_rate = 0.593, Pending_hits = 1593, Reservation_fails = 0
L2_cache_bank[6]: Access = 7604, Miss = 4642, Miss_rate = 0.610, Pending_hits = 1517, Reservation_fails = 0
L2_cache_bank[7]: Access = 7918, Miss = 4590, Miss_rate = 0.580, Pending_hits = 1599, Reservation_fails = 0
L2_cache_bank[8]: Access = 8192, Miss = 5100, Miss_rate = 0.623, Pending_hits = 1720, Reservation_fails = 0
L2_cache_bank[9]: Access = 7807, Miss = 4626, Miss_rate = 0.593, Pending_hits = 1597, Reservation_fails = 0
L2_cache_bank[10]: Access = 7777, Miss = 4448, Miss_rate = 0.572, Pending_hits = 1546, Reservation_fails = 0
L2_cache_bank[11]: Access = 7868, Miss = 4832, Miss_rate = 0.614, Pending_hits = 1659, Reservation_fails = 0
L2_cache_bank[12]: Access = 7411, Miss = 4218, Miss_rate = 0.569, Pending_hits = 1426, Reservation_fails = 0
L2_cache_bank[13]: Access = 7536, Miss = 4502, Miss_rate = 0.597, Pending_hits = 1498, Reservation_fails = 0
L2_cache_bank[14]: Access = 7454, Miss = 4062, Miss_rate = 0.545, Pending_hits = 1407, Reservation_fails = 0
L2_cache_bank[15]: Access = 8268, Miss = 5498, Miss_rate = 0.665, Pending_hits = 1864, Reservation_fails = 0
L2_cache_bank[16]: Access = 7634, Miss = 4516, Miss_rate = 0.592, Pending_hits = 1434, Reservation_fails = 0
L2_cache_bank[17]: Access = 7927, Miss = 4958, Miss_rate = 0.625, Pending_hits = 1675, Reservation_fails = 0
L2_cache_bank[18]: Access = 7482, Miss = 4230, Miss_rate = 0.565, Pending_hits = 1428, Reservation_fails = 0
L2_cache_bank[19]: Access = 8331, Miss = 5038, Miss_rate = 0.605, Pending_hits = 1746, Reservation_fails = 0
L2_cache_bank[20]: Access = 7833, Miss = 4380, Miss_rate = 0.559, Pending_hits = 1513, Reservation_fails = 0
L2_cache_bank[21]: Access = 8142, Miss = 5124, Miss_rate = 0.629, Pending_hits = 1747, Reservation_fails = 0
L2_cache_bank[22]: Access = 7680, Miss = 4516, Miss_rate = 0.588, Pending_hits = 1520, Reservation_fails = 0
L2_cache_bank[23]: Access = 7583, Miss = 4274, Miss_rate = 0.564, Pending_hits = 1496, Reservation_fails = 0
L2_total_cache_accesses = 186105
L2_total_cache_misses = 110186
L2_total_cache_miss_rate = 0.5921
L2_total_cache_pending_hits = 37530
L2_total_cache_reservation_fails = 0
L2_total_cache_breakdown:
	L2_cache_stats_breakdown[GLOBAL_ACC_R][HIT] = 32194
	L2_cache_stats_breakdown[GLOBAL_ACC_R][HIT_RESERVED] = 37530
	L2_cache_stats_breakdown[GLOBAL_ACC_R][MISS] = 27053
	L2_cache_stats_breakdown[GLOBAL_ACC_R][RESERVATION_FAIL] = 0
	L2_cache_stats_breakdown[GLOBAL_ACC_R][SECTOR_MISS] = 81493
	L2_cache_stats_breakdown[LOCAL_ACC_R][HIT] = 0
	L2_cache_stats_breakdown[LOCAL_ACC_R][HIT_RESERVED] = 0
	L2_cache_stats_breakdown[LOCAL_ACC_R][MISS] = 0
	L2_cache_stats_breakdown[LOCAL_ACC_R][RESERVATION_FAIL] = 0
	L2_cache_stats_breakdown[LOCAL_ACC_R][SECTOR_MISS] = 0
	L2_cache_stats_breakdown[CONST_ACC_R][HIT] = 0
	L2_cache_stats_breakdown[CONST_ACC_R][HIT_RESERVED] = 0
	L2_cache_stats_breakdown[CONST_ACC_R][MISS] = 0
	L2_cache_stats_breakdown[CONST_ACC_R][RESERVATION_FAIL] = 0
	L2_cache_stats_breakdown[CONST_ACC_R][SECTOR_MISS] = 0
	L2_cache_stats_breakdown[TEXTURE_ACC_R][HIT] = 0
	L2_cache_stats_breakdown[TEXTURE_ACC_R][HIT_RESERVED] = 0
	L2_cache_stats_breakdown[TEXTURE_ACC_R][MISS] = 0
	L2_cache_stats_breakdown[TEXTURE_ACC_R][RESERVATION_FAIL] = 0
	L2_cache_stats_breakdown[TEXTURE_ACC_R][SECTOR_MISS] = 0
	L2_cache_stats_breakdown[GLOBAL_ACC_W][HIT] = 6195
	L2_cache_stats_breakdown[GLOBAL_ACC_W][HIT_RESERVED] = 0
	L2_cache_stats_breakdown[GLOBAL_ACC_W][MISS] = 326
	L2_cache_stats_breakdown[GLOBAL_ACC_W][RESERVATION_FAIL] = 0
	L2_cache_stats_breakdown[GLOBAL_ACC_W][SECTOR_MISS] = 1314
	L2_cache_stats_breakdown[LOCAL_ACC_W][HIT] = 0
	L2_cache_stats_breakdown[LOCAL_ACC_W][HIT_RESERVED] = 0
	L2_cache_stats_breakdown[LOCAL_ACC_W][MISS] = 0
	L2_cache_stats_breakdown[LOCAL_ACC_W][RESERVATION_FAIL] = 0
	L2_cache_stats_breakdown[LOCAL_ACC_W][SECTOR_MISS] = 0
	L2_cache_stats_breakdown[L1_WRBK_ACC][HIT] = 0
	L2_cache_stats_breakdown[L1_WRBK_ACC][HIT_RESERVED] = 0
	L2_cache_stats_breakdown[L1_WRBK_ACC][MISS] = 0
	L2_cache_stats_breakdown[L1_WRBK_ACC][RESERVATION_FAIL] = 0
	L2_cache_stats_breakdown[L1_WRBK_ACC][SECTOR_MISS] = 0
	L2_cache_stats_breakdown[L2_WRBK_ACC][HIT] = 0
	L2_cache_stats_breakdown[L2_WRBK_ACC][HIT_RESERVED] = 0
	L2_cache_stats_breakdown[L2_WRBK_ACC][MISS] = 0
	L2_cache_stats_breakdown[L2_WRBK_ACC][RESERVATION_FAIL] = 0
	L2_cache_stats_breakdown[L2_WRBK_ACC][SECTOR_MISS] = 0
	L2_cache_stats_breakdown[INST_ACC_R][HIT] = 0
	L2_cache_stats_breakdown[INST_ACC_R][HIT_RESERVED] = 0
	L2_cache_stats_breakdown[INST_ACC_R][MISS] = 0
	L2_cache_stats_breakdown[INST_ACC_R][RESERVATION_FAIL] = 0
	L2_cache_stats_breakdown[INST_ACC_R][SECTOR_MISS] = 0
	L2_cache_stats_breakdown[L1_WR_ALLOC_R][HIT] = 0
	L2_cache_stats_breakdown[L1_WR_ALLOC_R][HIT_RESERVED] = 0
	L2_cache_stats_breakdown[L1_WR_ALLOC_R][MISS] = 0
	L2_cache_stats_breakdown[L1_WR_ALLOC_R][RESERVATION_FAIL] = 0
	L2_cache_stats_breakdown[L1_WR_ALLOC_R][SECTOR_MISS] = 0
	L2_cache_stats_breakdown[L2_WR_ALLOC_R][HIT] = 0
	L2_cache_stats_breakdown[L2_WR_ALLOC_R][HIT_RESERVED] = 0
	L2_cache_stats_breakdown[L2_WR_ALLOC_R][MISS] = 0
	L2_cache_stats_breakdown[L2_WR_ALLOC_R][RESERVATION_FAIL] = 0
	L2_cache_stats_breakdown[L2_WR_ALLOC_R][SECTOR_MISS] = 0
	L2_cache_stats_breakdown[GLOBAL_ACC_R][TOTAL_ACCESS] = 178270
	L2_cache_stats_breakdown[GLOBAL_ACC_W][TOTAL_ACCESS] = 7835
L2_total_cache_reservation_fail_breakdown:
L2_cache_data_port_util = 0.017
L2_cache_fill_port_util = 0.049

icnt_total_pkts_mem_to_simt=186105
icnt_total_pkts_simt_to_mem=186105
LD_mem_lat_dist  0 0 0 0 0 0 0 0 0 0 0 0 0 0 0 0 0 0 0 0 0 0 0 0 0 0 0
ST_mem_lat_dist  0 0 0 0 0 0 0 0 0 0 0 0 0 0 0 0 0 0 0 0 0 0 0 0 0 0 0
----------------------------Interconnect-DETAILS--------------------------------
Class 0:
Packet latency average = 8.03517
	minimum = 5
	maximum = 62
Network latency average = 8.03517
	minimum = 5
	maximum = 62
Slowest packet = 314436
Flit latency average = 8.03517
	minimum = 5
	maximum = 62
Slowest flit = 314436
Fragmentation average = 0
	minimum = 0
	maximum = 0
Injected packet rate average = 0.0724887
	minimum = 0.0349009 (at node 10)
	maximum = 0.0876365 (at node 50)
Accepted packet rate average = 0.0724887
	minimum = 0.0349009 (at node 10)
	maximum = 0.0876365 (at node 50)
Injected flit rate average = 0.0724887
	minimum = 0.0349009 (at node 10)
	maximum = 0.0876365 (at node 50)
Accepted flit rate average= 0.0724887
	minimum = 0.0349009 (at node 10)
	maximum = 0.0876365 (at node 50)
Injected packet length average = 1
Accepted packet length average = 1
Total in-flight flits = 0 (0 measured)
====== Overall Traffic Statistics ======
====== Traffic class 0 ======
Packet latency average = 8.38403 (5 samples)
	minimum = 5 (5 samples)
	maximum = 71.8 (5 samples)
Network latency average = 8.38403 (5 samples)
	minimum = 5 (5 samples)
	maximum = 71.8 (5 samples)
Flit latency average = 8.38403 (5 samples)
	minimum = 5 (5 samples)
	maximum = 71.8 (5 samples)
Fragmentation average = 0 (5 samples)
	minimum = 0 (5 samples)
	maximum = 0 (5 samples)
Injected packet rate average = 0.0773887 (5 samples)
	minimum = 0.0423211 (5 samples)
	maximum = 0.0938958 (5 samples)
Accepted packet rate average = 0.0773887 (5 samples)
	minimum = 0.0423211 (5 samples)
	maximum = 0.0938958 (5 samples)
Injected flit rate average = 0.0773887 (5 samples)
	minimum = 0.0423211 (5 samples)
	maximum = 0.0938958 (5 samples)
Accepted flit rate average = 0.0773887 (5 samples)
	minimum = 0.0423211 (5 samples)
	maximum = 0.0938958 (5 samples)
Injected packet size average = 1 (5 samples)
Accepted packet size average = 1 (5 samples)
Hops average = 1 (5 samples)
----------------------------END-of-Interconnect-DETAILS-------------------------


gpgpu_simulation_time = 0 days, 0 hrs, 0 min, 59 sec (59 sec)
gpgpu_simulation_rate = 1066332 (inst/sec)
gpgpu_simulation_rate = 1567 (cycle/sec)
gpgpu_silicon_slowdown = 904275x
GPGPU-Sim: synchronize waiting for inactive GPU simulation
GPGPU-Sim API: Stream Manager State
GPGPU-Sim: detected inactive GPU simulation thread


		GPGPU-Sim: *** exit detected ***
		Waiting :                  20420686
		Issued:                    2910312
		ExcessALU:                 358034
		ExcessMEM:                 80682
		Others:                    92947859
		TotalWarpsIssued(Sum):     116717573
		WARPS:                     115294464


